12
0
C -2.0680560129 0.0418034466 0.5479765814
C 0.1624577948 0.1342381446 -0.5312718307
C 1.3109859282 -0.4145364796 -0.7930844024
N 2.457558297 -0.3052608923 0.120389709
N 2.4788232838 0.2037689458 1.2101711256
C -0.9689430384 0.6959015635 -0.2349238817
H -2.9932676365 0.02424029 -0.0318863081
H -1.8050587469 -0.9782178318 0.8225563925
H -2.2631741722 0.608390387 1.4607784037
H 1.5168078419 -0.9844329545 -1.692618863
H 3.2991685495 -0.7439569552 -0.3073378168
H -1.1273020884 1.718062336 -0.5707481096
