18
0
C -3.2989590845 0.3360562848 -0.4065529731
C -1.8666612486 -0.1795250972 -0.2958289403
C -0.9972258172 0.7062384562 0.5601158904
C 2.3733453478 -1.0948012785 0.5783070003
C 3.4800648293 -0.7068785027 -0.0347787081
C 0.0515821453 1.3395714024 0.1074401257
N 0.9774870313 1.9910529624 -0.3486529443
H -3.9111941884 -0.3331548623 -1.0144693695
H -3.3190991189 1.3269725967 -0.863280014
H -3.7650646362 0.4135602699 0.5783168662
H -1.8750789648 -1.1900980629 0.1249559654
H -1.4238482998 -0.262783481 -1.2909294677
H -1.250683186 0.8509278952 1.6046685233
H 2.2215764764 -0.9316839655 1.6392494568
H 1.5682396871 -1.5881643593 0.0458698232
H 3.6306098106 -0.8735040483 -1.0956168099
H 1.8763711901 1.5114795317 -0.3035719925
H 4.2854170265 -0.2161337416 0.5004035678
