17
0
C 2.4326275346 -0.7763483873 -0.0660771905
C 0.9401996645 -0.6335642379 -0.3426293505
C 0.2923687789 0.2288902868 0.694214037
C -1.6396169481 1.3001541884 1.5989545931
N -0.9929203134 0.5573177604 0.6960492656
C -1.8039265589 0.0580839323 -0.4194130259
H 2.9267414105 0.1974858356 -0.0786539346
H 2.6058554261 -1.2256740307 0.91429198
H 2.9130448002 -1.407692876 -0.8146790339
H 0.8126644478 -0.2232071906 -1.353493269
H 0.4960208115 -1.6387026712 -0.3746700284
H 0.8748475147 0.6095641821 1.5221926169
H -1.0861207774 1.6966059162 2.4343940516
H -2.6853958034 1.4993502585 1.4555192223
H -1.738032921 -1.0275534219 -0.4622563083
H -1.4331723145 0.4749009654 -1.354334054
H -2.8367347518 0.3536944898 -0.2695045714
