18
0
C 1.7348683712 -0.5394552459 1.2793394516
C 0.4385446429 -0.2898690831 0.5846657862
C -0.1757617891 1.0882541365 0.5299028873
C -1.5865014611 0.8357577485 -0.028777186
C -1.5055878858 -0.5340043127 -0.7298932859
C -0.2932463375 -1.1628571078 -0.0996245303
H 1.6657297789 -0.2839605397 2.3404564214
H 2.5268313126 0.0845804295 0.8543631484
H 2.0410717398 -1.58260374 1.1964221104
H 1.3691208895 0.0385591759 -2.0774374296
H 0.4197558013 1.7322466496 -0.1292254487
H -0.1904420579 1.5778145263 1.5075288989
H -2.2962936105 0.7741936021 0.7987987996
H -1.9290682647 1.6307606979 -0.6916497127
H -2.4141807269 -1.1256451853 -0.5954119106
H -1.3613949056 -0.4278346666 -1.8117186979
H 1.6547771658 0.3627293208 -2.6865540947
H -0.0307306629 -2.2058374063 -0.2388402077
