13
0
O 1.0543546455 1.7627747797 0.0473899426
C 1.628622678 0.7351539904 -0.1882881898
C 1.1069434079 -0.6360883483 0.1468653396
C -0.3435538561 -0.6554482643 0.5999876445
C -1.9789800848 0.535330429 -0.5345935203
N -1.2194868557 -0.4666746657 -0.5407576141
H 2.6284134634 0.7515536211 -0.6707035679
H 1.7676054537 -1.0379587348 0.9244096194
H 1.2443289713 -1.2796430418 -0.7275647282
H -0.5038179757 0.1019475838 1.3784788167
H -2.0040408832 1.264252637 0.2835159439
H -2.6436023207 0.702858021 -1.3803082711
H -0.5663516437 -1.6366600071 1.0256855849
