13
0
C 0.5560920972 -0.7803981204 0.2801878093
C -0.8645125668 -1.1258721817 -0.1275137561
O -1.621175463 0.1057575527 -0.2794206974
C -1.0157993761 1.1968619733 -0.69504643
N 0.2023342444 0.9707974078 -1.3188005374
C 1.0225414327 0.1457863863 -0.8027223415
H 0.5702663156 -0.3021120388 1.2639981211
H 1.1799191413 -1.6729683584 0.327125063
H -0.8853147155 -1.6804154503 -1.0683528107
H -1.4045938381 -1.6820441429 0.6344792854
H -0.0475671834 2.5120919223 1.4191926059
H 0.3887840978 2.4957551368 2.0262334521
H 2.0104148139 0.0386779137 -1.2480047638
