17
0
C 1.3985171959 0.8630149879 0.187997449
C 0.8619571672 -0.4902367737 -0.2487913173
O 0.5043230023 -1.3141095769 0.8651484224
C -0.5581838372 -1.0200447426 1.6429613571
C -1.4671686635 -0.0592561783 1.5270279393
C -0.5109381868 0.5385863312 -2.0991383099
C -0.2236974515 -0.4696308416 -1.2923189513
H 0.6193376755 1.5180415996 0.5747406485
H 2.1474124709 0.7177554998 0.9665228068
H 1.8807980009 1.3591338399 -0.6552830324
H 1.695606844 -1.0528543954 -0.6810255188
H -0.6065999975 -1.7322534586 2.4598938807
H -1.483849795 0.6649878109 0.7271471439
H -2.2503746708 -0.0086090739 2.2700221873
H -1.2757210498 0.4402269245 -2.8594036285
H -0.003007403 1.4943056618 -2.0385254792
H -0.7630683016 -1.4081666149 -1.3884975976
