14
0
O 2.3350510311 -0.1887641485 0.6337363254
C 1.2314361124 0.6035722483 0.7244019212
C 0.4676696955 1.0039336779 -0.2860810796
N -0.7643964342 1.6800849112 -0.1442566175
C -1.6294100695 -1.5499688571 -0.8434259187
C -0.3937126356 -1.9636236079 -0.9117935311
O 0.7009704421 -2.3411462927 -0.9857198515
H 2.331588782 -0.6621019556 -0.202495958
H 1.0178173428 0.8792183855 1.7519993287
H -0.9332847773 1.986920562 0.8031743745
H 0.720310088 0.7379874178 -1.3087296793
H -0.8490742118 2.4682325116 -0.7693447324
H -2.4266772415 -2.2368984591 -1.0817271715
H -1.8171541243 -0.5202643932 -0.5632844104
