20
0
C 2.4482523915 -0.1048031751 -0.6400484856
C 1.0022673231 -0.3774456572 -0.9145269032
C -0.0604618461 0.2945939522 -0.4752687307
C 0.0110789388 1.5088149737 0.4090247908
C -1.4530422499 -0.1529393215 -0.8453029733
C -2.2950488214 -0.586522208 0.3546869194
H 2.6059106688 0.7634054988 -0.0019500921
H 2.9119114082 -0.9639013661 -0.1470745711
H 2.9961812758 0.0559469392 -1.5724353264
H 0.8124126306 -1.2402785211 -1.5499055632
H 1.0189111262 -1.2744589085 2.6322531597
H 0.8680427988 -1.1332575375 1.9148283196
H -0.2622760468 1.2622503372 1.4390209207
H 1.0021098169 1.9578476109 0.4310430525
H -0.6947230964 2.2707189003 0.0675249809
H -1.3865481426 -0.9775614749 -1.5588122183
H -1.9647987672 0.6679197604 -1.3612694033
H -2.4444618455 0.2305623143 1.0631195945
H -3.2814821654 -0.9260157731 0.0336089495
H -1.8125833976 -1.4081823443 0.8886555796
