14
0
C 1.1418604955 -1.0352985583 1.5790219067
C 0.3154409152 0.1496206462 1.1834502061
O 0.3442479926 1.6294225477 -2.5218827417
C -0.6099181291 0.1038322311 0.2536220821
C -1.4212410078 -0.4666410697 -0.7758402079
O -1.504532448 0.9332679847 -0.3420262659
H 0.8760006189 -1.9140208629 0.9904534822
H 2.2068935031 -0.8406839721 1.43219618
H 0.9994489626 -1.2790095522 2.634465291
H 0.4723654903 1.0953389799 1.6916001612
H -0.3470132804 1.7773332704 -1.8665938523
H 1.1526781192 1.5708574702 -2.0103911855
H -2.2923396863 -1.058840293 -0.5176637667
H -1.0146615459 -0.591258822 -1.7741542894
