13
0
C 0.5511959395 1.2208928841 -0.0743080535
C 1.6508411566 0.7751278354 0.7505787946
C -0.3385383884 -1.71790499 -0.6095001354
C -0.8484359192 -0.9236541706 0.5522819112
C -0.5439715377 0.233863279 -0.4313720205
N -0.0758474934 -0.7736761432 -1.4286867979
H 0.7557962834 1.9096740823 -0.9031019696
H 0.2081567455 1.876528289 0.7773632249
H 2.4247673709 1.5616502031 0.6932245585
H -0.1933177927 -2.7813848061 -0.7907127886
H -0.2196605917 -0.9469557267 1.4420315985
H -1.8969128831 -1.0680154502 0.8165235283
H -1.4289188897 0.7585217138 -0.7991738507
