12
0
C -2.9474952585 -0.166294118 0.4776175741
C -1.5228726841 -0.0055328111 0.2247650302
C -0.3408999376 0.120660886 0.0230310882
C 1.0203265628 0.2896506771 -0.2560464949
C 3.1765600865 -0.0779564245 0.5798262665
O 1.8890894145 -0.1260403527 0.6227632167
H -3.4318573199 -0.7173650446 -0.331013797
H -3.1037585413 -0.7224568128 1.4034856682
H -3.4456094083 0.8003778139 0.5770117211
H 1.3977135708 0.7427509243 -1.1639387985
H 3.6696914504 0.3570914558 -0.2795908527
H 3.6798860646 -0.4913171934 1.4361603781
