17
0
C -1.9267521204 -0.1272058077 0.103409411
C -0.8260519451 -0.8184470721 -0.6973060139
O -0.2784565462 0.0351209482 -1.6705008341
C 0.2131146573 -1.4219372985 0.2141247277
C 1.5215235203 -1.2703390139 0.081016453
C 1.335107343 2.2335779406 0.8768873578
O 0.8062615418 2.3602701018 -0.1931370408
H -2.3982192276 -0.8169528849 0.8067101422
H -1.5173690821 0.7118283133 0.6721086997
H -2.6906895974 0.2575094696 -0.572477288
H -1.2809426819 -1.6426911224 -1.2594177428
H 0.0515314499 0.8310988815 -1.2303075271
H 1.3914269475 1.2534551801 1.381806112
H -0.1776691715 -2.0331105167 1.0250587427
H 1.9338003829 -0.6896872795 -0.7364748928
H 2.2156362691 -1.7434657289 0.7651246197
H 1.7879912604 3.0973378892 1.3948920736
