17
0
C -3.0128225769 0.1928911388 -0.0365716426
C -2.2299985315 0.4782026936 -1.064285425
N 0.7285910119 -1.2716205679 -0.7783160344
C 0.5761556772 -1.3997136905 0.7313679995
C 1.600258827 -0.7503868657 -0.0571156779
C 2.8465350885 0.0265152921 -0.1475899577
H -0.2426732501 1.8383303909 0.6906761085
H -3.7388829666 0.9030803109 0.3434627438
H -2.9638983314 -0.7685554515 0.4626215507
H -1.5009782954 -0.2312574456 -1.4401928696
H -2.28551788 1.4387091289 -1.5652836105
H -0.2193345991 -0.8179964934 1.1890412184
H 0.7427640277 -2.3866479282 1.1535023431
H 0.2325357884 2.2489473564 1.0937136179
H 2.7284487769 0.9739753342 0.3806995604
H 3.1022655244 0.2186142914 -1.189188476
H 3.659658709 -0.5180664945 0.3354165513
