11
0
C -0.2999920949 -1.4263546422 0.3386558054
O -1.1306074789 -0.3029007722 0.3057937222
C -0.6098338394 0.7468276161 -0.4426195578
C 0.7783332725 1.1663339828 0.0112699482
C 1.7426611382 0.5322384104 0.5931033565
H -0.8033142595 -2.1936166594 0.9236871038
H -0.0828427261 -1.8057320013 -0.6674098396
H -1.2984856052 1.584098037 -0.3357250036
H -0.5488400009 0.4818120221 -1.5080695763
H 1.1045560024 2.1942090383 -0.1789707156
H 0.6636275918 -1.1910620317 0.8370047565
