19
0
C 2.3442562327 0.1467498862 1.3949897827
C 0.8533367275 0.4003465486 1.2236189386
C 0.205578891 -0.6129299514 0.3157052624
O 0.1523492202 -1.9026986774 0.8146958124
C -1.2370037102 1.0624195001 -1.0378244948
C -1.740167621 0.3476244381 -2.2685926095
O -1.1691233307 -0.1764410619 0.0846982503
H 2.5449688435 -0.8416928191 1.8130557409
H 2.8622854983 0.2143675072 0.4363233149
H 2.7834374425 0.8887501543 2.0618971036
H 0.3332991667 0.3771967529 2.1888974755
H 0.6668694278 1.3774943377 0.7751017952
H 0.6880079311 -0.6568988654 -0.6616235221
H -0.0097278422 -1.8675867859 1.7620734621
H -2.0823490914 1.5841454283 -0.5711521065
H -0.9790356818 -0.2882685259 -2.7330563399
H -2.6648595006 -0.2500646998 -2.1593458774
H -1.9673700021 1.1311620631 -2.9978058231
H -1.6606796013 -0.9487172296 -0.2325511654
