17
0
C 1.9909827811 0.5825632199 0.3770847954
C 1.1954264338 -0.6115506491 0.8139629019
O 0.387756493 -0.4802694001 1.9796230412
C -0.2638826454 -0.7157727069 0.7441745467
C -1.181562761 0.370934965 0.2488889097
C -1.8001635866 0.0735372817 -1.1624669782
C -0.6109837109 0.2600951417 -1.9930986116
H 1.4262312145 1.5077966115 0.4773033033
H 2.8936238253 0.6690122411 0.9842680592
H 2.2913153681 0.4749409967 -0.6672492652
H 1.7417101399 -1.5535438342 0.7809135339
H -0.6834081812 -1.7192667645 0.6553371771
H -0.6816682149 1.3387819244 0.2515769387
H -2.028508656 0.4507545611 0.9331213289
H -2.2440627942 -0.9288294146 -1.1306494412
H -2.5722843203 0.8232539796 -1.3409851459
H -0.0602833852 -0.7019211533 -1.9794070941
