15
0
O 2.0805675403 -0.2595198621 0.1498147926
C 0.9646529046 0.0180054788 -0.1766074338
C 0.4329497253 1.2485947527 -0.9189745644
C -1.040247064 0.832688394 -0.8607560218
C -1.2516417175 0.3697803899 0.5895254778
C -0.3420606907 -0.7464891291 0.0467679573
O -0.9587793093 -0.5675289652 -1.2558948131
H 2.0977755708 -2.334410124 1.7760352577
H 1.9430756713 -2.8666645451 2.2761847756
H 0.6805511405 2.1737191742 -0.3974175754
H 0.8119461914 1.2927592103 -1.9396883777
H -1.7750289489 1.4107953567 -1.4149619329
H -0.895610191 0.99894076 1.4060339948
H -2.2619766071 0.0080539588 0.7668918926
H -0.3037422157 -1.7645418499 0.4214575708
