15
0
C -1.4373852986 -0.2939754882 1.8733450489
C 0.5120259692 -0.6330431843 -1.0931222957
C -0.3611415256 -0.1353449381 -2.1870490115
N 1.1368844502 0.3583782871 -0.4855442186
C 2.0123064272 0.2036473127 0.621951616
O 2.3006350007 -0.8262565205 1.1354833165
H -2.3208984575 -0.7003507854 2.3631142006
H -1.7403667063 0.4885668246 1.177516971
H -0.7686986374 0.1243997302 2.6249263807
H -0.9194595347 -1.0848497926 1.3315412522
H -0.1182453442 -0.6776832221 -3.10361783
H -0.333997456 0.9496522303 -2.3815265994
H -1.386496217 -0.4303902645 -1.9447898095
H 1.0097017747 1.3342481499 -0.7686874563
H 2.3994645553 1.1827426609 0.9587764349
