12
0
C -1.1013072559 0.383948727 0.6130781511
O -0.5834369321 1.3558906484 -0.0623850716
C 0.8120991799 1.1736199209 -0.5048231122
C 1.2031280982 -0.1259868999 0.1114020017
O 1.0937243197 -0.0779050923 1.5171934862
C 0.0016228218 -0.6367021402 0.7829189117
H -2.8426869004 -1.2829796954 -0.6425941865
H -2.9498242355 -1.8293090508 -1.1411165768
H 0.8108590833 1.1640470729 -1.5942438211
H 1.3722122108 2.0281040424 -0.1293445455
H 1.9719127109 -0.7624819275 -0.3089838873
H -0.2137051007 -1.6810516053 0.96748665
