11
0
N 2.569292422 0.0874073674 -0.8286016506
C 1.1603433555 -0.0534328945 -0.6258449821
C -2.7516805498 -0.2201360999 0.4471513047
O -1.9974135927 -0.4540753758 -0.4539751799
C 0.5956307414 0.2761219235 0.5161481384
O 0.1574507234 0.584792606 1.5460907646
H 3.1255110564 -0.4978512729 -0.2246739946
H 2.8923236819 1.0412399554 -0.7763554154
H 0.5199850022 -0.4337783192 -1.4092668617
H -2.3941648733 0.181803432 1.4122290588
H -3.8387379671 -0.3963713219 0.3503458179
