14
0
C 2.3184594712 -0.4209686604 -0.7544088036
N 1.2417610062 0.5402843451 -0.8022898537
C 0.0572887506 0.1744486557 -0.653361924
C -1.1466373815 1.0744183052 -0.6787547608
O -2.1377479424 0.2705243438 -0.4787611011
C -1.739607779 -1.1254191187 -0.3152108458
O -0.3640532545 -1.1320853112 -0.4346095609
H 2.8288160597 -0.410466977 -1.7194521802
H 3.042744828 -0.0869105402 -0.009820527
H 2.0068144993 -1.4422036353 -0.523925951
H -0.9387705047 2.8887014334 1.3976868238
H -0.8313196356 3.0235086587 2.1244994782
H -2.2203759351 -1.7006923232 -1.107854498
H -2.0648511819 -1.4481571763 0.6749537041
