11
0
O 1.0583739045 0.8185641341 -0.0051748616
C -0.2388185853 0.8537760042 0.4683871934
C -0.9146112325 -0.4511551725 0.1138059653
C 0.1802467627 -1.1801713848 -0.6069866378
C 1.2450161502 -0.396941286 -0.6267080136
N -0.7351502429 1.8239543053 1.0848481664
H -1.7960150063 -0.2627615598 -0.5026889414
H -1.2567714669 -0.9552222671 1.0200505791
H 0.1138729173 -2.1663600462 -1.0368985199
H 2.2290225583 -0.5422750469 -1.0448974059
H -0.061237759 2.5778693197 1.1913954761
