15
0
C 2.3498663506 0.1761379555 -0.4535120665
C 0.9518452349 -0.3071566098 -0.739267085
C 0.6614647546 -1.5257759592 -1.0645561755
C -1.8407199026 -0.7648370298 0.7344382611
C -1.4571000875 0.4748806496 -0.0157264402
O -0.4362470768 1.2917051198 0.550565993
C -0.1786087383 0.6827586686 -0.6991923083
H 2.6211800008 0.9626156579 -1.1601921869
H 3.0760799688 -0.6309484481 -0.5342920267
H 2.384918559 0.5883033417 0.5556790175
H -0.9651436427 -1.2722320771 1.1337357354
H -2.3744887234 -1.4532771465 0.0764024142
H -2.5036019586 -0.5024029942 1.5609707698
H -2.2934936573 1.0529476127 -0.4056140855
H -0.1521990814 1.3802552588 -1.5354398163
