14
0
O 0.0293140594 -2.1030876164 -1.2985539429
C 1.652197995 0.9181239325 -0.4572772617
C 0.6018218163 1.3620972497 0.2146649248
C -0.7692766725 0.7462388989 0.0904058843
C -1.0276969167 -0.1368550023 1.2806802927
O -1.1057818447 -1.338293141 1.2353349725
H 0.0331201758 -3.0259920813 -1.5522848503
H 1.5659636145 0.0798977492 -1.1412519739
H 2.6265667861 1.376590808 -0.3387150156
H 0.7105539152 2.1904872818 0.9094658739
H -0.8445073025 0.1527731848 -0.8204445235
H -1.5331459365 1.5305203469 0.0766967433
H -1.1201702603 0.3792895714 2.256924949
H -0.3989204291 -2.0659211824 -0.4309300727
