15
0
C 2.1293355821 0.139632662 0.0094556361
C 0.680171516 -0.1978713147 -0.1043995742
C 0.0152555809 -0.6802835031 -1.2779759406
C -1.3808513663 -0.4492256599 -0.8318950264
C -1.5831839072 -0.6423926026 0.6776912223
C -0.3555113398 0.2305547722 0.8651588749
C -0.4963938472 0.7894332241 -0.5627104757
H 2.2857255193 1.0950269365 0.514773613
H 2.6339688169 -0.6298375545 0.5967868331
H 2.5826691465 0.1724476193 -0.9802060797
H -1.5417719313 -1.662630631 1.0663134248
H -2.1845459719 -0.4996320281 -1.5545971694
H -2.4846584329 -0.1386488648 1.0290945771
H -0.0908157983 0.8060134205 1.7433077517
H -0.3444345671 1.7579095241 -1.008259667
