11
0
O 1.8059789488 0.1804649979 0.4956516611
C 0.8636145082 -0.4147419091 -0.3909298568
C -0.4138780635 0.3397431147 -0.2520849727
O -0.3620276667 1.6934782865 -0.4894319016
C -1.5424355362 -0.2450741432 0.0734384228
N -2.6051678043 -0.8387324767 0.2002250431
H 2.6916799828 -0.0344393324 0.2001496337
H 1.2172139427 -0.3294674371 -1.426142306
H 0.7056206853 -1.4722170405 -0.1583053764
H -2.8976245881 -0.9676766015 1.1676670573
H 0.4174375912 2.0207985415 -0.0279884045
