17
0
C 2.897885387 0.2408916361 -0.159329574
C 1.6453743792 -0.624433597 -0.1654446013
C 0.4023716912 0.0119312641 0.2738887534
C -0.7877847525 -0.6471790083 -0.2768916058
C -2.1121139074 -0.3986717319 0.4568800585
C -2.5441459586 0.9940726388 0.4073798829
C -2.9025431569 2.1342130848 0.3395991757
H 2.8661082143 0.9592453974 -0.9799689268
H 3.8002521352 -0.3620056369 -0.2761177059
H 2.9628733176 0.802586435 0.7723984371
H 1.5708084109 -1.2457506644 -1.0738080828
H 1.7024299596 -1.350316042 0.6746710976
H -0.8274420131 -0.1575100506 -1.2683101819
H -0.6542419182 -1.7192329943 -0.4936175018
H -2.0058377012 -0.703833693 1.5006649759
H -2.8952825819 -1.0257626405 0.0224129792
H -3.2140285054 3.1505286028 0.2913568199
