13
0
C 1.7824301333 -0.1929221667 0.9042387434
C 0.5153154628 -0.0267359924 0.5763458877
C -0.6837135618 -0.8861865807 0.2698482213
C -1.3962296274 0.4643930996 0.119580398
O -0.1591484613 1.1607371482 0.4003700054
H 2.1843229938 -1.1903783507 1.0074644906
H 2.4302414388 0.6565335387 1.0719510344
H 0.4376392555 0.6328069655 -2.8428894717
H 0.4853271826 0.9874439715 -2.1883530384
H -0.6024728386 -1.471867227 -0.644413945
H -1.0258962701 -1.5194738456 1.0861004971
H -2.1530963121 0.6931749375 0.8709870827
H -1.7681903956 0.7077705022 -0.8764179056
