13
0
N 1.5296388377 -1.2401045937 -1.1548154496
C 1.0552057097 -0.250682297 -0.5607406767
O 1.64795015 0.8000582977 0.0880160764
C 0.3617900438 1.3357545537 0.52095686
C -0.3368056451 0.2243532714 -0.2513983861
C -1.6332000042 0.1577436542 -0.929713406
N -1.2903226247 -0.7474949592 0.2880560394
H 2.5461448149 -1.2488640249 -1.1518361305
H 0.2792361617 1.3193273572 1.6086990357
H 0.1939404136 2.3355913427 0.1244955258
H -1.5532614275 -0.4996668072 -1.7999714116
H -1.7677215466 -0.5364188238 1.1507048101
H -1.0003658833 -1.7135359711 0.1881881132
