13
0
C 2.0189056277 0.1608520771 -0.1854767881
C 0.5443271153 -0.0386018019 -0.0863930352
C -0.3970583805 0.9733681529 0.4261952049
C -1.6140293022 0.4312189675 0.3594909548
C -1.4558199477 -0.9438691462 -0.2018312169
N -0.0383851859 -1.1227155172 -0.4435196176
H 2.4423908834 0.3851463189 0.796340467
H 2.4897169241 -0.7358532885 -0.5830248047
H 2.247877363 1.0059566548 -0.8389448313
H -0.1288193865 1.9589728304 0.781337181
H -2.5534531669 0.8795179079 0.6521153687
H -2.0108270801 -1.0790831369 -1.1364775823
H -1.8138244639 -1.7186520188 0.4848406999
