13
0
C -1.4248259735 0.8594731815 1.2592495795
C -1.2435466162 -0.3752137466 0.8151594024
O -1.8047296368 -0.8275215045 -0.3321610579
C 1.2222874656 -1.3034919168 -1.0513669582
O 0.7560391463 -2.3676311885 -1.1506196393
C 1.8806146134 -0.1972114616 -1.0271195243
C 1.9283580469 1.0721326865 -0.677362401
H -2.034367799 1.5677797125 0.7129249592
H 1.0998625234 1.5438566742 -0.1505607637
H -0.9820640749 1.1628711523 2.1966480241
H -0.642245737 -1.0965656159 1.3633685527
H -1.4472972528 -1.6919509837 -0.548894738
H 2.7911682947 1.6932620106 -0.9013224354
