16
0
C 2.411094186 -0.3158747112 0.2692834377
C 0.9954888242 -0.2252459854 -0.1836920288
C 0.354065773 -0.9832588353 -1.1829346489
C -0.9709348436 -0.6074346912 -1.3485843127
C -2.2908046314 0.323460895 0.613791369
C -1.1448037156 0.5114966853 -0.3688437311
N 0.1518211009 0.6528913612 0.32286264
H 2.5311874501 -0.0153994022 1.3104321575
H 2.7790245051 -1.3333287772 0.1469784203
H 3.0303499159 0.3368757464 -0.3500339399
H 0.8689915502 -1.7720434771 -1.7186254623
H -2.3634076711 1.1571788994 1.3164824982
H -2.1590249858 -0.6019685293 1.176719672
H -3.2248029224 0.2515133368 0.0594719287
H -1.3028732109 1.4217868798 -0.9616333403
H 0.3752606757 1.3026256049 1.0567463404
