16
0
C -1.8391243818 0.9301120114 2.0337027359
C -1.5501805352 -0.0202603497 1.1738517671
C 1.0646613699 1.0460916614 -1.3769109403
C 2.0433436065 0.3192545716 -0.9286503186
C 3.0167473412 -0.4143373631 -0.4735488188
C -0.9199453021 -1.263383942 0.7907634692
N -1.7870747723 -0.467621895 -0.1245805008
H -1.3851046699 0.9346506534 3.0148539229
H -2.5257640636 1.7261966778 1.7762548982
H 3.3464072878 -0.3272609159 0.5553008246
H 1.2560643118 2.0191875509 -1.8142197839
H 0.0370026705 0.699732748 -1.3160053491
H 3.528716172 -1.1240585896 -1.1126057589
H 0.1243427296 -1.2940989441 0.5005803962
H -1.319065347 -2.1829144822 1.2069101994
H -2.7086294175 -0.862305393 -0.2677127431
