11
0
O 1.9690431685 -0.3141481689 -0.1107927292
C 0.629677493 -0.440680991 0.2993043069
C -0.3431764102 -0.969114663 -0.73404958
N -1.4083663402 -0.2790820753 -0.8337272993
C -1.2597253281 0.8203136268 0.075140957
C -0.100101909 0.803739781 0.7265455895
H 2.0083743562 0.3454266505 -0.8073482359
H -0.1748913967 -1.8672980631 -1.3201521988
H 0.6367020035 -1.1535659862 1.1350015468
H -2.0665466497 1.5350187202 0.1534246964
H 0.2571990126 1.5036681691 1.4663439467
