12
0
N 1.7778584476 0.0213384145 -0.2542157554
C 2.6934654719 0.2294756068 -0.9429136936
C 0.6430737788 -0.2641750589 0.5745919551
C -0.421733214 0.8494572468 0.5125360574
C -1.1549333533 -0.0582203845 -0.4932467866
N -0.3168409972 -1.1769306021 -0.0245299174
H 1.0259026193 -0.5677769524 1.5494137531
H -0.9492085809 0.9507791153 1.4584325179
H -0.0761549962 1.8189449781 0.164930092
H -0.9732561337 0.2339563059 -1.5320082899
H -2.2239499166 -0.2088157246 -0.3411431815
H 0.0432978744 -1.823314945 -0.711929751
