13
0
N -1.6669829414 0.3993470497 0.2120724344
C -0.2745073437 0.1012542933 0.093810959
C 0.0356961835 -1.3561968032 -0.0204040556
O -1.0299413867 -2.1017471965 -0.3803520121
N 1.1855297351 -1.8199442914 0.2003954888
C 1.5683040862 1.9161374898 -0.1914334512
C 0.6577873581 1.0084406766 -0.0246941621
H -1.8702124577 1.3517490587 -0.0516995569
H -2.008523412 0.2404255366 1.152361626
H -1.7754765088 -1.4920803742 -0.5042908576
H 1.1988526112 -2.8235005742 0.0350877196
H 2.1518735073 2.2807595633 0.6466310576
H 1.7864345688 2.3201845715 -1.1740951898
