12
0
O 1.1341238519 -1.4811879949 1.1172636528
C 0.3726334184 -1.6570404557 0.2001458361
C -0.5920897438 -0.6237830243 -0.317716674
C -0.2126516391 0.8108920565 -0.05405405
O 0.1835586828 1.0968746499 1.2101528802
C -0.3262437398 1.7617671597 -0.9723349006
H 0.6214714766 0.3136925042 1.5747047573
H 0.3275147774 -2.6458311669 -0.2953091075
H -1.5440796528 -0.8495169942 0.1850713417
H -0.7613378587 -0.7908076151 -1.381801574
H -0.6965017514 1.5330282056 -1.961239613
H -0.0670428216 2.7847816752 -0.7364785492
