11
0
N -2.3942352029 0.6276059705 0.4024502515
C -1.2640971046 0.1361659714 0.1546589563
N -0.9377251797 -1.1498144651 -0.1524554147
N 0.4103760319 -1.279144268 -0.4752462313
C 0.8726099655 -0.1117072583 -0.2543304275
N 2.1460395023 0.3378948136 -0.4294989278
O -0.0419594358 0.8014131116 0.1554888588
H -2.3416196384 1.6167976364 0.6073274756
H -1.5949595074 -1.8102528701 -0.521321446
H 2.4213993853 1.0905968707 0.1781887085
H 2.8287351836 -0.3942405128 -0.5274858034
