15
0
C 1.6821421947 0.1251519998 0.5177313034
C 0.3181790364 0.0177046653 -0.148415674
O -0.1680965824 -1.2895573159 0.1538668327
C -1.43218934 -1.5693321452 -0.2229380386
N -1.9883984843 -2.6835258257 -0.0673784487
C -0.5759793109 1.0952902761 0.3970803168
N -0.3967287426 2.2216728011 -0.2307045878
H 1.5687988365 0.1161004099 1.6022140201
H 2.1852414941 1.0469922643 0.2234163076
H 2.2992060108 -0.7229913368 0.2227650137
H 0.4335368689 0.0906164471 -1.2435514991
H -1.3588874901 -3.3385349786 0.3943491708
H -1.9682451875 -0.7434539106 -0.6923605576
H 0.2289079999 2.3568665437 -1.0250520884
H -0.8989873034 3.0446301054 0.0625029291
