16
0
N 2.7248874681 0.6547957498 0.0200993228
C 1.4822718825 0.461953629 -0.0590338116
C 0.9113405573 -0.9296286979 0.0317054595
C -0.3608423982 -1.0824330699 -0.7444556266
C -1.1669331097 -0.044030836 -0.8846305498
C -0.7878151424 1.2717636024 -0.2853816884
O 0.6205736341 1.4911215792 -0.2339766081
H 2.9357631846 1.6483654092 -0.0459108004
H 1.6864835456 -1.6216121784 -0.2898146461
H 0.7219329715 -1.1474072197 1.0904726753
H -1.8444769315 -1.0630806705 1.8290309749
H -0.6062618486 -2.0512441951 -1.1630964532
H -2.1102963768 -0.1099864399 -1.4131686114
H -1.9326127881 -0.9499604747 2.5612928399
H -1.1941300572 1.3595555142 0.7304879536
H -1.1850825913 2.1021582982 -0.8690294303
