17
0
C -1.6217526575 1.2254170077 -0.4884510449
C -1.1648521284 -0.1910163177 -0.5744105225
N -0.0803355591 -0.5973508371 -0.0206737255
C 0.8258849953 -1.5281734294 0.3342030035
C 1.1486858379 -0.0914777335 0.5645412465
C 2.0221979549 0.7513977767 -0.3322758644
H -2.6295253839 1.2868836387 -0.0696284493
H -0.9559862355 1.8098402782 0.1471236644
H -1.6520826655 1.698073938 -1.4742608488
H -2.0216848308 -2.1782103577 1.828319103
H -1.7529106759 -0.9336630939 -1.1020753859
H -1.2883465454 -2.2664848028 1.6966638194
H 1.270416803 -2.1952490674 -0.3938279627
H 1.0565110768 0.2726456382 1.5875469156
H 3.0553791234 0.6916935328 0.0155369031
H 1.7307674698 1.8046994549 -0.3263232754
H 1.9877554212 0.3840933744 -1.359600576
