13
0
O -2.598895846 -0.5144935729 -0.2626938622
C -2.3576823618 -1.3018787648 0.6130069686
C 0.7626377869 0.3132941296 -0.5296703911
C 0.3200908892 1.2974252395 0.2615378018
O -0.9556863755 1.6470889981 0.4551216377
C 2.1474248518 0.0118160994 -0.6539284154
C 3.3099811952 -0.2632718842 -0.7734845871
H -1.5537973075 1.0301479767 -0.0031548698
H -1.587825081 -1.1002314701 1.3777287522
H -2.897528775 -2.2606899301 0.6815342599
H 0.0648073014 -0.2741796029 -1.1175062332
H 1.0047671251 1.9142050214 0.833028641
H 4.3417055971 -0.4992322396 -0.8815207025
