15
0
C 1.3740154704 1.1423827418 -0.8143773649
C 0.2107535206 0.5569999981 -0.5959965267
O 1.2435216443 -1.0393126741 2.0618098078
C -0.9903359467 0.8447899788 0.308049793
C -1.514736808 -0.5380731115 -0.0922161427
O -1.6741985445 -0.5243080719 -1.4966330024
C -0.3658420081 -0.772093342 -0.9834482177
H 2.1248442882 0.6763937515 -1.4419956038
H 1.6112276114 2.1073573601 -0.3823542693
H 1.4987458065 -0.4561607449 1.3406095505
H 0.7842318749 -1.7662923038 1.6380856834
H -0.7020912769 0.9160911559 1.3571906669
H -1.6386286405 1.675268513 0.0302463316
H -2.1089754801 -1.2368258091 0.4807234986
H 0.1282884885 -1.6809314418 -1.3012612043
