16
0
C -0.9537098803 -0.1040629297 -0.3110840779
C -0.1904185369 0.9910861891 0.367779749
C 0.4855449718 0.1607205667 -0.6751420698
O -0.2784833259 -2.3749326196 -2.716210293
C 0.2075516976 0.8280744529 1.8093139159
O 1.4308895306 1.4624825985 2.1286779501
H -0.3408905326 -1.6508720487 -2.0870463827
H -1.1778562422 -0.9927070152 0.2667664672
H -1.7233928234 0.1722317763 -1.0197402265
H -0.4549404585 2.0038279204 0.0786561894
H 1.2375298645 -0.5394716735 -0.3318389716
H 0.6972531224 0.6130303358 -1.6352448759
H 0.5808327501 -2.768016982 -2.5592565216
H -0.5983182836 1.1845594566 2.4637095978
H 0.3591954087 -0.2314916826 2.0292418745
H 1.3364947377 2.4053686551 1.983046675
