10
0
N 1.7063181837 0.1651115376 -0.4252457843
C 0.3965559001 0.0239132291 -0.1144984725
N -0.526022828 0.9558908664 0.0041916677
C -1.8207391086 0.4104232273 0.2888914167
C -1.5216249297 -0.8964844416 0.3145322701
O -0.1116319612 -1.1474134412 0.0603914606
H 2.1360559342 1.0569083257 -0.2597651244
H 2.2878586288 -0.6392246383 -0.2689359775
H -0.3523009876 1.9384717941 -0.1108558196
H -2.0710908318 -1.8059994591 0.4744813633
