17
0
C -1.6394408939 -1.6230350182 -0.0890793179
C -0.4157085393 -0.7473787141 0.0516294005
O -0.1358759359 -0.2320075555 1.1118414923
C 1.7155180235 1.925224804 0.3934547339
C 1.5614654578 1.6738184393 -0.903567266
C 1.1828797294 0.4187189022 -1.5524849547
C 0.3876726966 -0.5954909844 -1.182623464
H -1.3367774677 -2.6416435091 -0.3453971898
H -2.2774410685 -1.2635512535 -0.8993699177
H -2.1956625956 -1.634254955 0.8450550976
H -1.7395156395 -0.4408696509 3.1879958649
H 1.5353708989 1.1741035598 1.1477615394
H 2.036869505 2.9089206473 0.715467844
H 1.7942119256 2.4676506564 -1.6088784682
H 1.5881248858 0.3290814417 -2.5582993124
H -2.2519212981 -0.5802927311 3.7130756862
H 0.2293923159 -1.3787180791 -1.9181747682
