17
0
C 1.6860392454 -0.7891864013 0.3387348794
C 0.7503381819 0.4202549284 0.3224314616
C 0.1206597812 0.6594873961 -1.0544929972
C -1.6310950741 0.1655669897 0.9987040232
O -2.1012237408 0.047787398 -0.2650159062
C -1.1021705934 -0.2211563281 -1.2398417489
C -0.3532310395 0.3026200816 1.3377832492
H 2.0772787657 -0.9676769469 1.3423207922
H 2.5342468113 -0.6350761557 -0.3330311713
H 1.1629691447 -1.6961804334 0.0268878808
H 1.3482404737 1.3013395201 0.5793048447
H -0.1861092284 1.7045562498 -1.1475900092
H 0.8383331855 0.4563573802 -1.8535198914
H -2.4367514935 0.1428453225 1.7225638944
H -1.5772300036 -0.057546192 -2.2066901426
H -0.8276511183 -1.2807993254 -1.1662405484
H -0.1115842978 0.3654905165 2.3917373897
