14
0
O 0.3810897013 0.7471835879 1.3691574637
C 0.8542823669 1.2736089355 0.2675613144
C 0.4113557818 1.0800751695 -1.0188917649
C -0.1738714444 -0.4353639538 -1.1391054602
C -0.2865915084 -1.2415156188 0.1422583348
C -0.6337623764 -0.2712994458 1.2591257918
N -0.9607654669 0.6337298882 -1.3277146579
H 1.7152156944 1.9061659798 0.4709139065
H 1.0514683383 1.4682932263 -1.8098898116
H 0.4358778227 -0.8988226908 -1.9352051661
H 0.6294007832 -1.7994151897 0.3553126834
H -1.1044256037 -1.9611453837 0.0472089641
H -0.6585425618 -0.7418476071 2.2397621578
H -1.5804455269 0.2165471022 1.0370842443
