17
0
C 2.2269607999 0.5371867351 -0.3455193466
C 1.4518962458 -0.4336692639 0.5223376597
O 0.4032107056 0.1868098396 1.2962393379
C -0.4747009516 -0.8137273502 0.7445641759
C -1.8090318707 -0.3030877524 0.235343323
C -1.6658281495 0.7395162376 -0.8650198449
C 0.5416647762 -1.3933589078 -0.1785366149
H 1.5618896267 1.0471040885 -1.0427889485
H 2.7062253241 1.2860896918 0.2852086249
H 2.9876444104 -0.0003714029 -0.9114234268
H 2.1366324459 -1.0064500963 1.1670035093
H -0.6419418542 -1.6253157666 1.4799447232
H -2.3585255678 0.1115566348 1.0844035428
H -2.369399193 -1.1695224754 -0.1244207284
H -2.6429273609 1.0999522967 -1.1890151242
H -1.0902576065 1.5969110201 -0.5138430598
H -1.1599847805 0.3170064712 -1.7367998024
