10
0
N -1.2011104622 0.6237215505 -0.9110836513
C -0.7557157346 -0.0806575823 0.0270403358
O -1.5799369454 -0.7698260919 0.8337374418
C 0.6764602338 -0.3217384394 0.4573530383
C 1.6431002521 0.3972181388 -0.360040685
N 2.3884115025 0.9708926959 -1.0152088528
H -0.4676640529 1.0859847914 -1.4374812368
H -2.4790205611 -0.5934295527 0.5297333253
H 0.787301974 -0.0232922237 1.501929483
H 0.8835337938 -1.3929672866 0.4104598018
