11
0
N 1.0596858705 1.6564202619 0.6425434806
C 1.8963999056 2.3357964727 1.17631893
O 2.6234386904 3.0849774704 1.6904344423
C -1.5023438004 -0.7571328674 -0.2043205445
C -0.2427194651 -1.5494314611 -0.3287477108
O 0.8678767225 -1.1159975884 -0.1489989371
H 1.1235225054 0.6787164008 0.3636514317
H -2.0446759461 -0.7989732481 -1.1524279305
H -1.3012152565 0.277329027 0.0675625664
H -2.1442242085 -1.2262600012 0.5460135345
H -0.3673600179 -2.6136024665 -0.6079462628
