12
0
O -1.2907815675 0.3741922835 0.1168655869
C -1.8640605686 -1.2796346411 0.2765608791
C 0.0487940726 0.49974899 -0.0875826484
N 0.4878759514 1.4394461104 -0.8629432899
O 1.8518269474 1.3184596581 -0.8185788847
C 2.1709128594 0.300215436 -0.0126644708
C 1.0653272024 -0.2818579514 0.4977486222
H -1.7642085336 0.9619969795 -0.4871896805
H -2.7354557784 -0.9971004042 0.8874737262
H -2.2489644112 -1.3568273919 -0.7547409389
H 3.2248135855 0.1027363576 0.098547712
H 0.9487742406 -1.1313104265 1.1448323869
