12
0
C 2.2011377921 0.1020378224 -0.0470825679
C -1.3372261894 -0.706607589 0.5117020837
C -0.2367293171 0.3136871738 0.3281858329
O -1.1900407839 1.0894093037 -0.4887727781
C -2.0945690352 0.0856627421 -0.2405493297
C 0.9574655272 -0.0806472729 -0.4611863853
H 3.0491359124 -0.2237869342 -0.6364907451
H 2.4157079575 0.5828172923 0.9015183325
H -1.4318843157 -1.6485793285 1.0211823772
H 0.0245492385 0.8934506856 1.2154134751
H -3.0975776265 0.1287774169 -0.6433521194
H 0.7473058403 -0.5606513121 -1.4127811759
