16
0
C 1.6500902651 0.4003134989 -0.9942126167
C 0.7544721043 0.8355977992 0.1592235611
C 0.107886056 -0.3454199816 0.8534221712
O -0.8174037395 0.1515307736 1.8427102338
C -1.0009984351 -1.1677333725 0.270725222
C -1.7467595905 -0.5380627049 -0.8298839923
H 2.4209957543 -0.2968217979 -0.6574182511
H 2.1522138638 1.2581051113 -1.4427112134
H 1.0799350649 -0.0955684392 -1.7827557588
H 1.3418097946 1.3764486168 0.9065682304
H -0.0109903203 1.5323155421 -0.1878084202
H 0.88352087 -0.9612957091 1.3204039021
H -1.0867072057 -0.5957828938 2.3885553648
H -1.6278588686 0.5358715609 -1.0051429185
H -2.8007799871 -0.8161923197 -0.8324261476
H -1.3079466263 -1.0697916838 -1.6929853668
