9
0
O 2.4101337999 0.3566858229 0.1420969917
C 1.1997619257 0.329560444 0.1580250931
N 0.2909147982 1.1864474331 0.6878240725
N -0.9172983096 0.6485349851 0.4034952835
C -0.8653864052 -0.4757874573 -0.2611016363
N 0.4267747716 -0.7285560999 -0.4467896928
H 0.8283123574 -1.5165481884 -0.9219987715
H -1.748173428 1.1237422672 0.7084635713
H -1.7080715099 -1.0638862068 -0.5839219115
