10
0
N 1.9860449745 -0.419017129 0.3487528856
C 1.2998051494 0.6657068982 0.7449550018
C 0.6740677247 1.6210694895 1.1180645414
O -3.4868542019 -1.2026860671 -0.9477476135
C -2.4083655936 -0.9288455341 -0.6154527899
N -1.2552365 -0.7668065723 -0.3020047097
H 2.4992045781 -0.3088020831 -0.5111726099
H 1.4612688242 -1.2804764647 0.3796428636
H 0.1926419812 2.4816570864 1.5163995952
H -0.8429959366 0.0850023762 0.0621878353
