15
0
O 1.9866488452 0.7607457558 -0.5098949287
C 0.7491534448 0.1463902309 -0.3482558175
C 0.6588971507 -1.183545629 0.3804415267
C -0.6805346063 -1.3524467725 0.9988528937
C -1.3384621088 -0.0204758015 0.8654911829
C -0.520374602 0.8904070785 -0.0269062116
C -0.2556471544 0.3684292183 -1.4192453858
H 2.3066280223 1.0415478041 0.3504841714
H 1.324483972 -1.2077460469 1.2616335505
H 0.9588793019 -2.0614405475 -0.1994215037
H -0.8350380867 -0.4714041997 -1.7882613595
H -2.3885651536 -0.1465544749 0.5798824211
H -1.3956838858 0.3352889974 1.9069859351
H -0.5142034458 1.9630401288 0.1189987903
H 0.0105233063 1.1055612581 -2.1647112653
