11
0
O -0.728965398 1.2985122325 -1.7698481416
C -0.8770439577 0.6933226594 -0.7516449206
O -2.0546885791 0.4798312919 -0.036166865
C -1.3714373088 -0.305211777 0.985006331
C -0.1225692736 -0.0587405855 0.2077615404
C 2.0921574991 -0.1301087285 -0.462377626
O 1.1197192156 -0.412287009 0.3244545143
H -1.7580980292 -1.325589743 1.0103406647
H -1.4607569195 0.1709028677 1.9627789982
H 3.046830963 -0.5298321176 -0.1639464549
H 1.9090367882 0.4708709091 -1.3433880404
