12
0
O 2.3717506512 -0.7185209171 0.143789922
C 1.2131644038 -0.5384066948 0.3851435504
C 0.1440977289 -0.447689715 -0.6657145733
C -1.2785224301 -0.8438937886 -0.2764142955
O -1.6731505321 0.5344376001 -0.492078399
C -0.4793115505 0.9707141966 -0.8402375359
H 0.8612131423 -0.4104460166 1.4302399958
H 0.5228071516 -0.8344399753 -1.6118794137
H -1.8099213017 -1.5099189433 -0.9542064347
H -1.4526538936 -1.1358004142 0.7600545383
H 1.0673210343 2.5152464645 1.6314104615
H 0.7271845958 2.5286242036 0.9658701841
