14
0
C -1.9385611091 -1.3734840913 -0.9211518714
C -1.2010413929 -0.9999253379 -1.9535300415
C 1.0771703797 2.0713044866 1.3827219252
C 0.7120467929 0.9233987044 0.8264171703
C 1.5958642474 -0.2532731827 0.9042081443
O 1.3413787491 -1.3291824582 0.4282860146
H -1.4793340753 -1.7746299141 -0.0246614072
H -3.020508679 -1.3001328324 -0.9355230936
H -0.1206809992 -1.0862689034 -1.9248502537
H -1.6452077187 -0.603149247 -2.8597213386
H 2.0269800974 2.1610349469 1.9012439033
H 0.4537671059 2.9558661034 1.3446395078
H -0.2275705702 0.7975610457 0.2988877568
H 2.5489941719 -0.0855473198 1.4490705836
