15
0
O 0.9304084648 2.1272410478 1.0739018907
C 1.7055055089 -1.2610618882 0.0980615063
C 0.4486556423 -0.8697722582 0.2681029351
C -0.5107365319 -0.6226744328 -0.823515944
C -1.473466611 0.6182458849 -0.7248257822
C -1.9640633015 -0.7419304723 -0.5712556274
O -2.8741296541 -1.4763116173 -0.3548804398
H 1.4866233976 2.8737314841 0.848590878
H 2.3560793592 -1.4406368186 0.9447964104
H 2.1186911145 -1.4345043845 -0.8897549482
H 0.0724062542 -0.7122509354 1.276519355
H 1.3578644113 1.3558229735 0.6890476627
H -0.1702183639 -0.8656293481 -1.8254728873
H -1.6768340875 1.1468891402 -1.6486759282
H -1.3640156028 1.249118625 0.1510939188
