21
0
C -1.1606048303 -0.9641185518 -0.2726274298
C -0.319722362 0.3164468458 -0.3285383755
C -0.7426938479 1.5236743681 0.4038290134
C -2.1688866242 1.6033170334 0.7619003478
C 1.2038899913 0.0901193447 -0.210774399
C 1.5746554464 -0.4016674684 1.1853949632
C 1.7662766175 -0.8326992685 -1.2880305539
H -0.7609252822 -1.730158288 -0.9374348796
H -2.1919620714 -0.7826249501 -0.5754291763
H -1.1808399211 -1.3805479404 0.7367839436
H -0.467258816 0.7888497556 -1.3283604011
H 1.6467852906 1.0814858155 -0.3386343256
H -2.6197671445 2.0146373474 -0.1574038799
H -2.3591697362 2.3506707483 1.5323854622
H -2.6970293493 0.6691399698 0.9873713433
H 2.6581933987 -0.4833804387 1.2941943861
H 1.1517647755 -1.3890609957 1.3902982349
H 1.2131197832 0.2927085493 1.9477906659
H 1.4653230982 -0.5137149405 -2.2893299976
H 2.8578248258 -0.8331356798 -1.254855746
H 1.4411407577 -1.8672892562 -1.153119196
