16
0
C 0.3384793574 1.298045141 0.0355445076
C 0.0262792708 -0.2114005349 -0.2003999383
C 1.2052480074 -1.0757588178 -0.597940587
C -0.8072685688 -0.9083911969 0.8672557318
O -1.9004663694 -0.157884338 1.3460405961
C -0.5456323139 1.418067075 -1.1667397605
N -0.7989677726 0.18702613 -1.3815594747
H -1.5923307985 0.4615130483 2.0077021335
H 1.3811523261 1.5870966175 -0.1071418169
H -0.0358733457 1.7498081366 0.9554261395
H 1.8773897844 -1.2367222485 0.2480976325
H 0.8594270901 -2.0482661502 -0.9550498909
H 1.7703689538 -0.6063843557 -1.4044410746
H -1.2287355596 -1.8143969558 0.425267863
H -0.1477965071 -1.2145095651 1.6897627621
H -0.9041295544 2.2610840144 -1.7543708233
