14
0
O 3.1191376214 0.3830295416 -0.5831838719
N 1.9784052996 0.4222304656 -1.3924301418
C 1.0896150021 -0.35582145 -1.0502661541
C 0.070281305 -1.123996985 -0.7921184371
C -1.0755610003 -0.7546968974 0.1075403946
C -0.9190113875 0.5973502126 0.7704035492
O -2.0636583632 0.8111298073 1.5734215592
H 3.689469299 1.0327195357 -1.0013680131
H -0.002993017 0.6080633071 1.3751751348
H 0.0562379798 -2.1028058877 -1.2604874509
H -1.1897171431 -1.5194188915 0.8810710183
H -2.0050449026 -0.7618687611 -0.4696843054
H -0.8214770743 1.377931142 0.0052478533
H -1.9817896189 1.6592238608 2.0106708646
