14
0
O 1.6019161913 1.5231930146 0.3838095234
C 1.2716984035 0.1917116249 0.1419388414
C -0.1690307105 -0.0973622066 0.4857401051
O -0.8325387704 0.7246595494 1.0743230564
C -0.7692550102 -1.4222658755 0.0880438251
O -2.0436631102 -1.5958686845 0.6194885053
H 0.1505695955 2.0278243734 -1.7939074389
H 1.4507157247 -0.0563913871 -0.9102862321
H 1.8927204873 -0.49059915 0.7413674833
H -0.3653122277 1.8490781958 -2.3025684861
H 0.8782743191 1.8977010975 0.9032153787
H -0.7863072831 -1.4509705381 -1.0117123918
H -0.1034778431 -2.2299978894 0.4149861532
H -2.2997447662 -0.7493451243 1.0081136773
