13
0
C -1.5051652498 -0.7900529202 0.2447793272
C -1.5383810052 0.7328404086 0.3170777431
C -0.1853278936 0.704796389 0.3798326222
N 1.0347238825 1.2827156842 0.1091864654
C 1.8083749811 0.2143585463 -0.426406416
C 1.1504625831 -0.9463132458 -0.2738078378
N -0.0178167057 -0.6718374253 0.4499945322
H -1.7256422569 -1.2031301269 -0.7396923963
H -1.9938296367 -1.3752700613 1.0264666284
H 1.0720845885 2.1923399909 -0.3148910711
H -2.3149743351 1.4715040325 0.387562208
H 2.8208561086 0.3824310625 -0.7547041345
H 1.4974059391 -1.9461093344 -0.4776856712
