13
0
C -0.4802920801 1.4222979307 -1.0130089346
C -0.3488453321 0.1789345748 -0.1890747851
C -1.4403127732 -0.2426705338 0.8408958234
N -1.3758193978 -0.9128178781 -0.350492903
C 0.826363743 -0.321665216 0.2608361155
C 1.9387634508 -0.7632009979 0.7617296511
H 0.0229655851 1.3068881406 -1.9739206031
H -0.044809217 2.2710456923 -0.4860213204
H -1.5375126074 1.6167515731 -1.1801962042
H -1.1995324894 -0.8023666664 1.7532886863
H 2.2172331754 -0.5688493694 1.7945270103
H -0.9960738118 -1.8657154426 -0.3449508911
H 2.6386847544 -1.3421578072 0.1647663549
