12
0
O 2.3551905705 0.6371142028 0.1257490043
C 1.202511286 0.0637829712 0.3279151432
C 0.0897657416 0.7909851074 -0.0785160898
O 0.222400486 1.9487534393 -0.6149102802
C -1.1695151844 0.2347701495 0.1128919135
O -2.174949885 0.9632850495 -0.2834571314
H 2.1037316655 1.4982318112 -0.2940290262
H 1.2084150515 -0.9142473616 0.7911393865
H -0.3013070832 -3.2510992921 0.9606810681
H -0.411969984 -3.1000937324 1.6821607154
H -1.3967735266 -0.7284190976 0.5508015296
H -1.7346811379 1.7753117527 -0.6399582329
