17
0
O 2.2560454002 2.352111815 0.2358257167
C 0.96612342 -0.7477768541 0.2114977799
C -0.3795422099 -1.353437662 0.4633427357
C -0.1424334151 0.0868815975 0.7994306996
C -0.9748357482 0.8723977374 -0.1892309654
O -1.2464818667 -0.0293826028 -1.2496509884
C -1.3330041646 -1.337542664 -0.7103883562
H 2.4369095042 2.2943428009 -0.7034230406
H 1.2505884944 -0.5697543644 -0.8199495829
H 1.7731999878 -1.0420135152 0.8696677138
H -0.498911628 -2.1048555523 1.2317356208
H -0.0781962261 0.4268243758 1.8245393788
H 1.8418064055 1.5142648218 0.4607918864
H -0.4696903855 1.7410709143 -0.614968508
H -1.9032201692 1.2095185282 0.2909446388
H -1.0752754072 -2.0373923285 -1.5075421414
H -2.3535289917 -1.5559150477 -0.3674465876
