12
0
C 2.5811710433 -0.2937287545 0.0686339458
C 1.1835341047 0.1194143528 0.0415742638
C 0.0383552572 0.4714301125 0.0194080213
C -1.3741532276 0.8474823076 -0.0143746347
C -2.1154685881 -0.2612082715 -0.7370083373
O -2.8035552553 -0.910447938 0.165194055
H 2.7452876324 -1.0646033705 0.8230038283
H 3.2304868395 0.5517853922 0.3009838861
H 2.8831554222 -0.6956555861 -0.8996522675
H -1.4892262891 1.7618190537 -0.6028062706
H -1.7512509134 1.019000382 1.0003999885
H -3.2648070259 -1.6351626805 -0.2719624787
