13
0
N 2.2239720523 -1.5585168656 2.0808640317
C 1.7551769059 -0.7299834673 1.4419544601
C 1.157524691 0.308687446 0.6030531154
C -0.4872906857 0.7250236448 -1.7321723736
C -1.0626028976 0.7379575572 -0.4538175334
C -0.912564475 -0.7643806585 -0.0586956698
N -0.297549893 0.250304777 0.7098229259
H 1.4895147902 1.2852488825 0.9582699472
H 1.5029042014 0.1806513628 -0.428592504
H -1.2717749068 0.9936695919 -2.4575556242
H -2.0062020621 1.1927115008 -0.1624353387
H -0.2893151774 -1.4112255343 -0.6677723481
H -1.832530543 -1.1932122371 0.3179599117
