16
0
C -1.9047646864 -0.3790192402 -0.0183852669
C -0.4537713278 -0.1744921389 -0.4091592127
C 0.1062099046 1.2367810776 -0.236315609
C 1.5959446775 0.9667897818 -0.0828360285
O 1.6799171891 -0.3072213349 0.5656317806
C 0.5182466777 -0.9949446439 0.4088322405
N 0.299912076 -2.1394164221 0.8794648851
H -2.5645319422 0.2108242401 -0.6572452846
H -2.0703440401 -0.0799266561 1.0185836021
H -2.1762142616 -1.4304883918 -0.1068481192
H -0.3117057234 -0.4848352011 -1.451711773
H -0.1176003846 1.9007627092 -1.0705791943
H -0.2943801466 1.6856063617 0.6764182254
H 2.1205348558 1.6909052851 0.538847895
H 2.1010011861 0.9016361749 -1.0516230527
H 1.1122309454 -2.4881166014 1.382226912
