11
0
N -2.0346300296 -0.1154738269 0.2663242452
C -0.7863980483 0.0634144286 0.1494783356
C 0.2193159492 -0.9757586616 -0.297039522
C 1.4792364305 -0.1674049649 -0.3201634924
N 1.3088062133 1.0374340092 0.0576081536
N -0.0170456733 1.1859116479 0.3889328208
H -2.5124492694 0.7231301103 0.5861642253
H -0.0472807583 -1.3938813994 -1.2688100846
H 0.2617664592 -1.8041341029 0.4135384697
H 2.4618467251 -0.5086895531 -0.6140567354
H -0.3572419985 2.1121693128 0.5673985841
