10
0
N -1.5753244689 0.2035342834 -0.0590081852
C -0.1152940069 0.0882275371 -0.0124783358
N 0.4966944066 -1.0722885175 0.1007538444
C 1.7687170344 -0.6060326181 0.0939924398
N 1.873103154 0.711877848 -0.0142368784
N 0.6009407342 1.1794694087 -0.0860180719
H -2.0038869612 -0.1594059057 0.7916771841
H -1.9629606241 -0.3020120942 -0.8547388984
H 2.6303065651 -1.2528532376 0.170036625
H -1.7816558334 1.199657296 -0.1508137236
