10
0
N 1.8451709918 0.0937242756 -0.2470524219
C 0.6502255612 -0.3964725174 0.1531189657
N -0.4228777892 0.2119941522 -0.59473756
C -1.4618125843 0.8329653814 0.285194309
C -1.7458871133 -0.3255455274 -0.1328867055
O 0.4980229259 -1.2457985039 0.9988735558
H 1.8827331511 0.6792550288 -1.0600370255
H 2.6831640681 -0.3279734216 0.1074304837
H -1.590784283 1.7685436783 0.7936268371
H -2.3307549283 -1.207837546 -0.2992424385
