16
0
C -0.9781571951 -0.6769677809 -0.5149625069
C -0.6255908566 -0.2184917902 -1.901531717
O -0.352758012 0.91779985 -2.191044371
C 0.2008917205 -1.3840577979 0.167015606
C 1.3442693944 -0.5259712696 0.6982304343
O 2.1690207907 -1.018560392 1.4385545488
N 1.38562173 0.7747733805 0.3229873984
H -1.8048457429 -1.3870953047 -0.5984172166
H -1.6550340361 3.1405264152 0.0855518478
H -1.3173336214 0.1768742269 0.0736953073
H -0.5952642171 -1.0091582422 -2.6785505547
H -1.3949966519 2.8340602935 -0.5428092379
H -0.1583085413 -1.9509999313 1.0256869093
H 0.6537434404 -2.119956009 -0.5043906337
H 2.1746495342 1.3122005773 0.6364860848
H 0.7878812643 1.1654407745 -0.3865068987
