16
0
C 2.051916396 0.1542567194 -0.2860380166
C 0.5576586856 0.1024531579 -0.1031190667
C -0.2112262537 1.0579128317 -0.5438904567
C -0.9764943495 2.0126845207 -0.9882217544
C -1.4973619904 -1.1479979626 0.7796281424
C 0.0126288759 -1.1090651577 0.6163128844
H 2.3975419099 -0.7154091493 -0.8518199911
H 2.3606268372 1.0549691366 -0.8139475495
H 2.5566088883 0.1311298165 0.6838368525
H -1.8556058016 -0.2836357135 1.3415258033
H -1.2243157993 2.8686715649 -0.3698968986
H -1.3917554488 1.9821676995 -1.9897294393
H -1.8042113463 -2.0497616376 1.3117843363
H -1.9991739671 -1.1392410453 -0.1895855202
H 0.3534776531 -2.0006178249 0.0772950992
H 0.4963367108 -1.1601109564 1.598773575
