8
0
O -3.4703596889 -0.7153423099 0.5769981159
C -2.3453154545 -0.4560656511 0.4753394297
C -1.0559005261 -0.37246818 0.3963186264
C -0.037846862 0.4553204065 0.2008842143
C 1.3252889664 0.0449703125 0.2042096355
C 2.4846930421 -0.2612630322 0.198982234
H -0.1985271315 1.5186190039 0.0231353572
H 3.5101796545 -0.5486485498 0.197139387
