13
0
O -0.9741079786 -0.5228841269 2.4685985796
C -0.9237890539 0.3390243145 -0.8059020747
C -0.14207664 1.3613507463 -0.4546162807
N 1.1048473523 0.8137087007 -0.9750954735
C 1.338042396 -0.4384315003 -0.2381673439
C 0.292174116 -0.395715104 -1.295333762
H -1.2813820829 -1.4038236136 2.2487179784
H -1.9786117332 0.1106337624 -0.765523804
H -1.0493411818 -0.0216687461 1.6506055648
H -0.2314594837 2.2991252255 0.0770499628
H 1.0445727321 -0.4934325159 0.8051705244
H 2.2786894333 -0.9139885624 -0.4963595703
H 0.4117171246 -0.8954355804 -2.247849301
