15
0
O -0.7031794626 -2.8126689246 -0.254232208
C -1.0055030064 0.6509766293 0.3778295799
C 0.0955213586 1.5928034417 0.9078042669
N 0.9481047327 1.3800477126 -0.3030201444
C 1.2619981337 -0.0436973986 -0.320468033
C -0.0673884975 0.393396169 -0.7905826795
H -1.5199925651 -2.7755034589 -0.7537271125
H -1.2810408791 -0.2161956308 0.9794720905
H -1.9068460324 1.1884844894 0.0889055042
H -0.2086949449 2.6357741693 0.9711699447
H 0.5905231787 1.3070877696 1.8383991151
H 2.0006500598 -0.3067190724 -1.0673312348
H 1.3531774743 -0.5708282953 0.6260327633
H -0.2173058734 -2.0231050593 -0.5081284111
H -0.3522166765 0.3490314589 -1.8359874411
