16
0
C -1.3054486307 -1.0274198175 0.3559697483
C -1.2467665663 0.1796599357 -0.5335030637
C -1.765330311 0.2625477287 -1.7540721478
C 2.2850427772 0.5638956132 1.6313641646
O 1.911953165 -0.5756113404 1.6688172818
C -0.5552496386 1.3237422147 0.004506191
N 0.0137428826 2.2121194687 0.4600462324
H -1.8132197586 -1.8463040122 -0.1515308069
H -0.300536604 -1.3473371431 0.6362462631
H -1.8420246859 -0.7970891345 1.2784510558
H -2.2825834679 -0.5835628382 -2.1893650082
H 1.7423720581 -0.8688233715 -1.5960379234
H -1.6866508774 1.1655262738 -2.3448223794
H 2.7015955186 1.012592118 0.7122541167
H 2.2307206601 1.2236043768 2.5151843744
H 1.8674774785 -1.0139780724 -0.8742470987
