17
0
C 1.7208169252 -1.2740313386 -0.1811564764
C 0.9477450071 0.0138111536 -0.4320886721
C -0.3100814348 0.1609767197 0.4261999708
C -1.015702532 2.2892901511 1.0541451934
N -0.9156472676 1.4486836551 0.125730927
C -1.3418212848 -0.9277671777 0.1598202752
H 1.9663658428 -1.39064033 0.8777920379
H 1.1568484168 -2.1556051893 -0.4907211355
H 2.6585408884 -1.2755090044 -0.7389303628
H 1.5939028595 0.8732399545 -0.2317625192
H 0.6566677087 0.0864197866 -1.4841459865
H -0.0128014849 0.1159101345 1.4881459673
H -0.6706636078 2.0952558124 2.0788435522
H -1.4637669257 3.2609754559 0.8526070837
H -0.9489618136 -1.9126177981 0.4155030197
H -1.6301161218 -0.9272922419 -0.8935341591
H -2.2391391756 -0.7576477435 0.7566792845
