10
0
O 0.1570862095 0.8832745516 -0.4703154681
C 1.2411461923 0.0527180917 -0.2632342121
C 1.2983176667 -1.1220354683 0.3357074093
O -1.8731231116 1.5824287541 -0.4436147745
C -1.0818823325 0.5656623891 -0.0934838231
O -1.4527977528 -0.4312729637 0.4553973257
H 2.1095258286 0.5349373435 -0.691068434
H 2.2677712779 -1.5989424177 0.3846144184
H 0.4451008352 -1.6180502581 0.7672288767
H -2.7638048134 1.3417209778 -0.1669173182
