13
0
C -1.9701972611 0.8711847812 0.5821191724
C -1.7310719003 -0.4296333244 0.5945487034
O 1.4169049085 -1.8953684265 0.1305800947
C 1.5409836708 -0.7019786166 0.1779265815
C 1.6083895023 0.1957219345 -1.0189921025
H -1.517281174 -0.962902825 1.5136876565
H -2.1874986061 1.4012802362 -0.3387522396
H -1.9665277201 1.4592735787 1.4929688776
H -1.7334100564 -1.0199861443 -0.3146227799
H 1.6127919559 -0.1872968557 1.1589724181
H 1.5148130415 -0.3778986452 -1.9391576233
H 0.8093192089 0.9381100723 -0.9500045616
H 2.5560554301 0.7407332348 -1.0114571974
