10
0
N 2.9664828745 -0.1656494052 0.8521635824
C 1.9812516623 -0.1082857775 0.2714330634
C 0.7230874224 -0.0355872751 -0.4799841836
N -0.1140268874 -1.1993669362 -0.2235976572
C -1.2255765751 -0.7147889894 0.1614683787
C -1.165193586 0.7631020551 0.203490816
N -0.0171365012 1.1765236427 -0.1566500224
H -2.0763794001 -1.3379067447 0.4117621993
H -1.9632790933 1.4380682555 0.490002764
H 0.9626800839 -0.0153818251 -1.5495079406
