15
0
C 1.6742148777 -0.8829108506 0.3228259723
C 0.6317994291 0.2209904577 0.2951432655
C 0.7309061558 1.1623134754 -0.8872237783
O -0.4733774959 1.5634629769 -1.1470439851
C -1.5091719575 1.0079577395 -0.2601479307
C -0.8468931853 -0.2062696958 0.3548463353
O -1.1238644662 -1.3995126461 -0.3444368351
H 2.6723375422 -0.4489483516 0.2708777796
H 1.5618297441 -1.5591540981 -0.5249872675
H 1.5951179916 -1.4773644561 1.2338348216
H 0.8154586008 0.9056540471 1.1392237705
H -1.751309504 1.7807775017 0.47054247
H -2.3812306507 0.7796214765 -0.869216832
H -1.1908354356 -0.3785824281 1.374257906
H -0.7755596461 -1.3383201484 -1.2375356923
