14
0
C 1.8365853863 -0.1674633112 0.7987643161
O 0.7647649435 0.5651746918 0.7496693346
C -0.2714140553 0.3503288175 0.0108345346
C -0.8561613515 -0.9727043146 -0.3632330109
O -2.1693025704 -0.4175468773 -0.1776020616
C -1.6577236719 0.8531041993 0.2801507802
H 1.86930169 -1.108638401 0.2700609378
H 1.9380718059 0.5031254963 -1.4898317338
H 2.6096011163 0.1984896637 1.451336384
H 1.217277895 0.6844348382 -1.6558290846
H -0.6194163383 -1.76936604 0.3645420682
H -0.7125344662 -1.3579009258 -1.376424023
H -1.8928563288 1.0450525007 1.3341788851
H -2.0308960547 1.6756016626 -0.3357083265
