16
0
C 2.2128155049 -0.0068890731 -0.578523379
C 1.1152745887 0.0008911968 0.4053617783
C -0.1241945693 0.7228911993 0.8412355798
C -1.4287920023 0.6704141559 0.0586869722
C -1.6707780628 -0.634734971 -0.6841777413
C 0.5191872244 -0.4959785064 1.4345455528
H 2.9123503656 -0.8216664002 -0.3910063461
H 1.8155169126 -0.1111463799 -1.5907670352
H 2.7568913432 0.9398532459 -0.5450234343
H 0.0019863166 1.6729668073 1.3683432217
H -2.2566386096 0.8531744193 0.7525319323
H -1.4444587419 1.5052504469 -0.6507415833
H -1.6909757313 -1.4856928264 0.0004419683
H -2.6238725476 -0.6099841182 -1.2150499152
H -0.8860786618 -0.8305609771 -1.4190779196
H 0.4739596704 -1.2416982192 2.2094723486
