17
0
C 2.1063470029 0.1050687605 -0.5247742625
N 1.586308164 1.3763460782 -0.017796512
C 0.9259404906 1.2698360578 1.3198336072
C 0.1435902897 1.3409713756 0.3183422914
C -1.1134014574 1.4623210536 -0.422811717
C -1.5046962091 -2.1824203631 0.1690410381
H 1.5680962724 -0.766659648 -0.1264295525
H 2.0369395128 0.0954763676 -1.615612859
H 3.1614689811 0.016420142 -0.2563041576
H -0.9478067509 -1.4886537363 0.7979728135
H 1.2075679209 1.2804482643 2.3556627645
H -1.9676241955 1.484171978 0.2527486187
H -1.2313736102 0.6232257376 -1.1118043561
H -1.096620133 2.3797384223 -1.0161371297
H -1.5294369557 -3.16261034 0.6425018494
H -2.5229525357 -1.8192523349 0.0353109329
H -1.0158157872 -2.261953815 -0.8013823689
