13
0
N -2.2917279024 0.5043089364 -0.2625480363
C -0.9098800253 0.236300331 -0.1479683701
C -0.3827927424 -1.0618361612 -0.3429576787
N 0.9176986637 -1.0801835432 -0.1785567936
C 1.3466490131 0.3378704287 -0.0394960295
O 2.3168359817 0.4754575857 0.9443504028
C 0.0989927881 1.1331018249 0.1290518852
H -2.8570221537 -0.0252211475 0.3859366088
H -2.45092694 1.4895032197 -0.1067191129
H -0.9233920037 -1.9704056679 -0.5920330758
H 1.5162997863 -1.8683634554 -0.3572755583
H 1.9712124154 1.1261400907 1.5617585368
H 1.7590981192 0.5944045582 -1.0286277783
