15
0
C 1.3122082845 -0.6189514229 -0.2952207118
C -0.0125148651 -0.0252747865 0.1837002274
C -0.0777331154 1.4718869027 -0.1188611832
C -1.1968931585 -0.7594883126 -0.4447537579
C -0.1459201607 -0.3303270917 2.7655648936
N -0.0877485783 -0.1951297221 1.6116170801
H 2.1548068753 -0.1146311342 0.1787980397
H 1.3676598747 -1.6815124223 -0.0563935362
H 1.3988929228 -0.4998960647 -1.3764741748
H 0.7554884794 1.9956984469 0.3505500242
H -1.0090481448 1.8997644074 0.2533320085
H -0.0263778394 1.6310381393 -1.1971028531
H -1.1610448367 -1.823214681 -0.2072872953
H -1.1673606697 -0.6433660814 -1.529347457
H -2.1401540678 -0.3551011768 -0.0763063043
