11
0
C -1.992045029 -0.6765397944 -0.157877127
C -0.0254198982 0.4966938359 0.5019175232
N -0.952819569 -0.2202831397 0.7424900564
N 2.2987375201 -0.4662629444 -0.3573872776
N 2.2929797728 0.7362121511 -0.0512970743
C 1.0491577331 1.2580458247 0.3391449935
H -2.9603923721 -0.475332113 0.2979308074
H -1.9340131627 -0.1973128543 -1.1367264435
H -1.8895818405 -1.7550920873 -0.2722683606
H 3.2669406662 -0.6987518127 -0.5971357474
H 1.0054311794 2.3188189341 0.5315956497
