11
0
C -1.5073289919 0.5126604307 -0.9247581333
N -0.9288652866 0.7883425877 0.1577657417
C -0.2719684491 -0.2973564328 0.8395000378
O 1.0571593601 0.0833567178 1.1837824708
C 1.9630273573 0.0014787921 0.2054967952
O 1.7650871601 -0.3965685708 -0.9038672867
H -2.0309611278 1.3022871433 -1.4595666039
H -0.2448856254 -1.2240832013 0.2545755707
H -1.5069308263 -0.4884750511 -1.3710098967
H -0.7702804134 -0.4640030969 1.7936271616
H 2.9328208431 0.3521086813 0.5826761427
