10
0
O -2.3692562525 -1.2951019238 0.9359084337
C -1.7414856358 -0.1739094383 0.4807331981
C -0.444064777 -0.1219860553 0.2934010783
C 0.803781023 -0.0394627433 0.1037884732
C 2.1002376734 0.0343242423 -0.0894598788
O 2.776608337 1.1245224556 -0.5377460341
H -3.3101841679 -1.1261909535 0.9938013037
H 2.1527557889 1.8391499937 -0.6914587007
H -2.3638032829 0.6912142099 0.2746733707
H 2.7576662938 -0.8037647874 0.1028307559
