11
0
C -1.8921941282 0.1717948097 0.7938420627
N -0.7105760295 0.1236130307 0.2475192271
N -0.0820862321 1.0513861501 -0.4085691742
C 1.1767698595 0.4719317526 -0.79349017
C 1.0948875697 -0.9025142193 -0.2242482735
N 0.0033503058 -1.1147507626 0.3807724989
H -2.2392586473 -0.7117773997 1.2971535928
H 1.3117288142 0.4400551744 -1.8838943721
H -2.4488803731 1.089084483 0.7093190551
H 2.0378518956 1.0197406903 -0.3863020167
H 1.8418639656 -1.683176709 -0.2848454304
