14
0
O -0.4321148605 2.5004271794 0.4580678086
C -0.8436105973 1.1462794111 0.4213226479
C -0.9122978399 -1.6991402883 -0.5546954026
C 0.2207207896 -1.2850879596 0.1763550947
C 1.0695871942 -0.2345870574 -0.6368796948
C 0.3472802725 0.2270118451 0.5313014334
H 0.0377777095 2.6974978837 -0.3543003425
H -1.5000286871 1.0074765954 1.2815014604
H -1.4175429877 0.9128389477 -0.4779365095
H -1.0513566169 -2.7835821845 -0.3920704161
H 0.8256961928 -1.9311762804 0.8101774726
H 0.6780373749 -0.0117077086 -1.6198198779
H 2.1336151212 -0.4199163826 -0.5807900998
H 0.9294359347 0.3620259987 1.4361824257
