15
0
O 2.0007207058 -0.0200037512 -0.1931081853
C 0.8084093591 0.4022970671 0.4440150266
C 0.1229755766 1.397229648 -0.4954648867
C -0.7851432593 0.6940046415 -1.4273146632
O -1.1527893353 -0.3759033447 1.523754987
C -0.8421512504 -0.6839399966 -0.8838328788
C -0.2194980973 -0.7296533345 0.5179719854
H 2.4843169883 -0.5949411075 0.4023967799
H 1.0102327658 0.8121704837 1.4385327116
H -0.6326690222 1.9726416784 0.0696210921
H 0.7815934488 2.1356166824 -0.9529871006
H -1.9180685991 -0.9492081886 1.4566440839
H -1.8009843646 -1.1932375871 -1.0040809617
H -0.1577970007 -1.1711110056 -1.6026312976
H 0.2551830843 -1.6909448853 0.7516703074
