12
0
N -1.9194286415 -0.0667935191 -0.8380104856
C -0.9965789614 0.3147897915 0.0749756721
C -0.3576861425 1.1848076075 0.7769627528
N 1.9483420418 0.2085551633 -0.8047163044
C 1.4332418217 -0.5675907194 0.050346659
C 0.1888884276 -0.2214208534 0.8005201371
H -2.6588270473 0.5818589005 -1.0434441194
H -2.1844952443 -1.0350211418 -0.8418881484
H -0.137164465 2.1947719027 1.0624700776
H 2.7838931222 -0.2029345755 -1.2120899855
H 1.8704245701 -1.5444771548 0.2995233463
H 0.0245395185 -0.8553224018 1.6757603985
