16
0
C 1.3320307219 -0.4657846063 1.1934830771
C 0.3283239004 -0.1166817592 0.1307153304
C 0.7409708648 0.5808341912 -1.1210286665
C -0.1537410142 1.3013676902 -0.1386439784
C -1.5923761759 1.2779234404 -0.5143923302
N -1.9137854184 0.0080499662 -0.4677461632
C -0.9093805401 -0.9717825657 -0.0182046744
H 0.8546328997 -0.5430603625 2.1733315565
H 2.1069646856 0.2996735537 1.260662137
H 1.8257940726 -1.4177244635 0.9819729646
H 1.7668482341 0.9216691911 -1.1833226819
H 0.3074351082 0.27771838 -2.0679992952
H 0.2513641076 2.1619233502 0.3765539627
H -1.2140281454 -1.4192544682 0.933136534
H -2.8350737108 -0.3033534332 -0.7309212377
H -0.79674159 -1.7715071044 -0.7548055345
