9
0
O 0.590288897 1.7024020816 -0.3257828306
C 0.2424348306 0.4314494343 -0.0571159401
C 0.7653917221 -0.7246275581 0.3412597466
O -0.4296158073 -1.4596541563 0.3127948003
C -1.0936123047 -0.2409769537 -0.1262981401
H 1.704018173 -1.1698509722 0.6331978516
H 1.534008155 1.8134742908 -0.1908936151
H -1.5312389451 -0.3664101219 -1.1171865954
H -1.8426607208 0.0786529555 0.598810723
