13
0
C -1.4618963458 -0.6060622425 0.1111743375
C -0.1027598911 -0.1751554932 -0.4198072606
C 0.4243272003 1.0750464473 0.285699845
O 1.6432816345 1.5272357916 -0.2386907988
C 1.6594907062 -2.0549358408 -0.1128200712
N 0.8538795828 -1.2283654095 -0.2613870709
H -1.8068583609 -1.5068633893 -0.3947445499
H -2.1924870696 0.1858550579 -0.0582069141
H -1.4104424603 -0.811609564 1.1815021027
H -0.1618593132 0.0355218474 -1.4905260034
H 0.4943145848 0.8735751889 1.3626119925
H -0.2979598505 1.879493636 0.1371705009
H 2.3192645828 0.8670139702 -0.0650021099
