12
0
O 0.7920939365 2.1577930357 0.0492429082
C 0.5727516383 0.9835758573 0.1605794006
N 1.6798849365 0.0850999798 0.0882760004
C 1.7988801352 -1.2231629181 0.2040151513
C -1.4419631704 -0.5204125262 -0.5259457708
O -1.1903959472 -0.7394126161 0.8463702936
C -0.8468878985 0.5210841639 0.3173249551
H 2.5232887919 0.626769935 -0.08120017
H 0.7962616473 -1.623959765 0.4051406713
H -0.8134218824 -1.0810497868 -1.211801468
H -2.4869106027 -0.4262737479 -0.8017163105
H -1.4731505843 1.3475503882 0.6388563389
