16
0
C 2.7380249588 -0.3214846224 -0.4087141385
O 1.4065289444 0.1108673576 -0.4974034439
C 0.6483672088 -0.2460768893 0.650171511
C -0.7233887481 0.2826609636 0.5632643065
O -1.6404654883 -0.5150592105 0.1150083183
C -2.8806180607 -0.2703818917 -0.1466996504
H 3.247168845 -0.0008715151 -1.3165736296
H 3.2480513614 0.1181228851 0.4595617265
H 2.8048936019 -1.415341305 -0.3306598948
H 0.6128014852 -1.3402831134 0.7480108255
H 1.1459489213 0.1550251505 1.5452718621
H -1.0035957213 1.3007966053 0.8038563485
H -1.0450146922 1.2908900319 -1.7402128801
H -3.4552994366 -1.118206058 -0.476952539
H -3.2947356776 0.701936877 0.0839125867
H -1.7606215024 1.1513997342 -1.9297813089
