12
0
O 1.0855495441 1.7819627873 -2.216777292
C 0.7314058004 1.8145582311 -0.9067718777
C -1.6999993425 -1.4502931063 0.6739439564
C -0.3497663802 -1.0453911416 0.9802485533
N -0.6934749665 -2.0417746254 1.6513010382
C 0.7658086855 0.8196867141 -0.0659339306
C 0.7878133043 -0.1720890991 0.7879229784
H 1.3664458217 0.8933701722 -2.4521024981
H 0.3973008676 2.7969237632 -0.5948245721
H -2.5456723849 -0.9251630342 1.1074067079
H -1.9131381683 -2.0357408597 -0.2154505718
H 1.6663712187 -0.3815758013 1.3928845083
