12
0
C -1.7536493625 -0.463311327 -0.1584458049
C -0.636727379 0.2461981476 0.541743165
O 1.2774948186 -0.2607817558 -1.1195876485
C 2.0921034376 0.1391590064 0.0187056676
C 0.6718217759 0.3515498601 -0.0492363477
O -0.1327587099 1.4597279542 -0.1037378619
H -2.6899970575 0.0839549194 -0.0396430524
H -1.5375959102 -0.5672224042 -1.2212390852
H -1.8834464353 -1.4595341779 0.26937862
H -0.7285576137 0.3535788601 1.6200913383
H 2.7585863463 0.9721895568 -0.1803009043
H 2.5054980897 -0.68200364 0.5953139137
