12
0
C 2.023543505 -0.0481826162 -0.0035135756
C 0.5610730366 -0.2785619804 0.0955107545
N -0.0152985632 -1.3678036301 0.494360211
N -1.3837892661 -1.1771927091 0.4396399213
C -1.568151691 0.0250429456 0.0076122692
O -2.7314012076 0.6431665742 -0.2049362795
N -0.3942262002 0.655689368 -0.2300911628
H 2.3220879319 0.185875704 -1.0273900577
H 2.5313636966 -0.9578017871 0.3094036499
H 2.3427797814 0.7710119106 0.6438467079
H -3.4276848894 0.0182127645 0.0233777822
H -0.2699231341 1.590846456 -0.5721342199
