16
0
C -0.0002549315 1.7244655111 0.0497627619
C 0.7203225253 0.4094415789 0.1016405607
C 1.7890456264 0.2175914536 0.865178399
O -1.6117924952 -1.2150194788 0.8500153676
C 0.1665428109 -0.695485553 -0.7599337935
C -1.3082843226 -0.9955395865 -0.5118920124
H -1.0003286061 1.630477523 0.4805262892
H 0.5366062944 2.4938313786 0.6037879528
H -0.1215930537 2.0638873812 -0.9830387842
H 2.198179399 1.0124745969 1.4780604215
H 2.2973702829 -0.7398172488 0.8981154897
H -0.8830281436 -1.6861201599 1.2591479564
H 0.7541929881 -1.6061746889 -0.6054586612
H 0.2790175758 -0.4289036805 -1.8174428791
H -1.9298709333 -0.1541094572 -0.8270774498
H -1.6030880167 -1.86055457 -1.1196156186
