15
0
C 2.5465798675 0.1024337856 0.29615366
C 1.2640369663 0.4192090571 0.3677473148
C 0.4580894963 0.9035283269 -0.7967603948
O -0.6719567594 0.0732369354 -1.0432324422
C -1.7083352966 0.2398570865 -0.1571351957
C -2.2172947779 -0.8214536117 0.4552096876
O -1.7378054659 -2.0778144327 0.3137358336
H 3.0967346284 0.1740471588 -0.6367077242
H 3.0968544199 -0.2377221704 1.1648663111
H 1.0512321905 0.8876778728 -1.7117049369
H 0.7303620507 0.3326700183 1.3108825057
H 0.1173999861 1.9332795211 -0.6266067409
H -2.1082977003 1.2403473191 -0.0320972292
H -3.0792672095 -0.7546495821 1.103987608
H -0.9887623961 -2.0323322847 -0.2923742572
