12
0
O -1.7087388972 0.7707799109 -0.3386953175
C -1.2599767824 -0.5040095627 0.0506102503
C 0.2658810898 -0.5687932142 0.0371877965
O 0.6937994752 -0.2943669191 -1.2820165644
C 0.8158937532 0.2742703326 1.1440500539
O 1.703700135 1.0934945721 0.6375749563
H -1.3014481218 0.9574523359 -1.1895829128
H -1.6467948202 -1.2820786268 -0.6177322646
H -1.626273929 -0.6900584729 1.0596936784
H 0.561038131 -1.5898362812 0.3370734364
H 1.4851301731 0.2492093318 -1.239364352
H 2.0751057931 1.6282825937 1.3468782396
