12
0
O -0.2413465043 -1.8011218746 -1.0601607401
C -0.07205713 -1.0298540943 0.0826946131
C -1.1296483348 -0.0407552685 0.4922046694
C 0.1426402607 0.4173627104 -0.1420174097
O 1.0851302917 1.0621075581 0.7077811821
C 1.8456326266 2.0236084382 0.3066593624
H -0.8812742066 -2.4907984957 -0.8725235574
H -2.0249893193 0.0308783246 -0.1109290986
H -1.2530733831 0.1463756198 1.5507081391
H 0.141556874 0.8024685745 -1.1560703245
H 0.5103684085 -1.4787552182 0.8828346695
H 1.5958654165 2.2077737259 -0.7743305052
