14
0
C -1.5883644736 -0.0470882428 0.4225538618
C -0.7110358863 0.569922707 -0.6255991038
C 0.448036395 1.4250989953 -0.1868671888
O 1.4168279649 0.7353957346 0.6794327509
C 1.3863804452 -0.5338915702 0.8548710109
N 0.5377504971 -1.3529280786 0.3406136151
C -0.6539188696 -0.8930684884 -0.3728583312
H 0.5879294572 -2.3147266449 0.6413980247
H -2.6230982653 -0.1775736 0.105373191
H -1.0469904066 0.853278784 -1.6261146191
H 0.129032293 2.2699504547 0.4229518249
H 1.0516321525 1.7762381851 -1.0267602127
H 2.1754362154 -0.9107420497 1.4973613926
H -0.8949295189 -1.5961991861 -1.1662042163
