18
0
C -1.4247321741 1.0345517208 -0.7110800624
C -0.5975433769 0.0758122054 0.1297651051
C -1.3149432126 -1.261039877 0.3474102882
C 0.7813493004 -0.1565064386 -0.4726490984
C 1.7432972678 -1.0178241817 0.3143521814
O 1.1010553195 0.3123463734 -1.5372351849
H -0.9151323678 1.9895737756 -0.8382331662
H -1.6006534387 0.6238454358 -1.7065652691
H -2.391055679 1.217354141 -0.2371483022
H -0.4181863462 0.5229639424 1.1162850294
H -0.7582692027 -1.9263025562 1.0089522206
H -2.2957667741 -1.0937103611 0.7948644295
H -1.4658231594 -1.7757846448 -0.6047398622
H 1.771373602 2.8315749276 0.8082329491
H 2.763756762 -0.7854299633 0.0168379351
H 1.5500166254 -2.0686535581 0.0841103972
H 1.6226228904 -0.8870416063 1.3906500141
H 1.778262964 2.4983576649 0.141178396
