11
0
C 2.5348357345 -0.8026551263 -0.1229558415
C 1.5007578062 -0.2140003005 -0.2368138886
C 0.2325919972 0.4885800808 -0.3800022319
C -0.9886378894 -0.3648818172 -0.4503766586
C -1.794157426 0.0827633107 0.5041762404
N -1.175149707 1.1608309672 1.2135649989
N -0.0432670101 1.3937175556 0.7634864756
H 3.4586217265 -1.3213121584 -0.0187648563
H -1.1511096492 -1.163649424 -1.1559712039
H -2.7831162322 -0.2358945584 0.7948545449
H 0.2845946495 1.1525414708 -1.2540115794
