13
0
C 2.0022662053 0.3038892931 -0.1002603767
N 0.5673850532 0.1485320632 -0.2764033731
C -0.1300370932 -0.1006273173 0.7216124038
O -0.0374933868 -0.2992215904 2.0406864644
C -1.3685066986 -0.3735439454 1.3675726195
O -1.7548260138 -0.2038269112 -1.9852683459
H 2.2961786198 1.2985023621 -0.4381715623
H 2.327986446 0.1707343924 0.9347684844
H 2.5168130305 -0.4233203457 -0.7294103541
H -0.8609922236 -0.0444215304 -1.6414710075
H -2.0393268344 0.4372071348 1.625544108
H -1.7921171108 -1.3700180335 1.3314867975
H -1.9205119936 0.5047704286 -2.6069058581
