11
0
O -0.5894391885 2.2372192181 -1.0996694986
C -0.0220674424 1.0685873391 -1.2266848294
C -0.4393597054 0.2462151353 -0.0450460206
N 0.2889301539 -0.9921148768 0.0254951666
C 0.7277223958 -1.5615675776 1.1706751257
O 1.3515593761 -2.5929289508 1.2368409766
H -0.3611821854 2.7745443826 -1.8659193784
H 0.4517774467 -0.9748169915 2.068047932
H -0.3160249352 0.8100453558 0.8860937126
H -1.5220732191 0.0808976589 -0.168937679
H 0.5506253033 -1.4376476929 -0.8402565073
