12
0
O -2.0875733601 -0.0188609558 -0.3899072268
C -1.0416127204 -0.8489396357 0.0280941946
C 0.2820524757 -0.1319132478 0.1555868282
C 0.5329896175 1.0789701177 -0.4088416938
C 1.873581956 1.4911904962 -0.4732385669
C 1.2954723052 -0.8718734281 0.8468785061
N 1.9978940912 -1.5537608267 1.4494192735
H -2.3555891429 0.5430797584 0.3400110807
H -1.255866567 -1.3362677934 0.9873779508
H -0.9455818731 -1.647378099 -0.7126148936
H -0.2989627085 1.5805681785 -0.9036082775
H 2.0696089265 1.9586394355 -1.4517091753
