14
0
C 2.5292878226 -0.3570964369 0.4304052873
C 1.2587269961 -0.0486313127 0.1845734954
C 0.0916282146 -0.9084991963 0.0542861286
C -0.9746032879 -0.1435892661 -0.1995894916
N -2.2784171336 -0.4772113304 -0.4665382958
C -0.5328418181 1.2892656879 -0.253621116
O 0.8536438729 1.2530120147 0.0123556142
H -0.7127187075 1.7317449357 -1.2400731281
H 2.813352229 -1.3904741321 0.5632626325
H 3.2855800574 0.4108457243 0.5041210552
H 0.1238038935 -1.983295369 0.148571823
H -2.5629947989 -1.4111605436 -0.2276132493
H -2.9745087067 0.218333419 -0.261555154
H -1.0370876334 1.9073368057 0.4993683987
