12
0
N 3.1634690928 -0.1752160958 0.3057843224
C 1.936433479 -0.2219392327 0.3220943122
C 0.6357773626 -0.1613865122 0.3007161885
O -0.2432395877 -0.1171363243 1.3932272019
C -1.3503235124 -0.2028084469 0.4819065452
C -1.3794552962 0.9697678421 -0.426023796
C -0.4458013959 -0.1861681024 -0.7210252165
H 3.6054567653 -1.0941253621 0.3410093665
H -2.1836015393 -0.8300398987 0.7641044092
H -2.2421052926 1.0244481556 -1.0793537869
H -0.9820605067 1.9192070119 -0.0878719459
H -0.4644295689 -0.7633040344 -1.6319856007
