12
0
O -1.1005236462 -0.6816405637 0.7850977793
C -0.3243612828 -1.5722831234 -0.0010208543
C -0.618641051 0.6025433944 0.4822450864
C 0.830102889 0.9196566224 0.6112181206
C 0.3057893607 0.6380338516 -0.7747358838
C 0.1754516434 -0.7795425711 -1.0532041319
N -0.6943585957 -1.6046158561 -1.4690733992
H 0.0880305409 -2.4307885035 0.5053644049
H -1.3710203423 1.3681807365 0.605803609
H 1.4759724655 0.182855348 1.0706212638
H 1.09098644 1.9483161921 0.8204592811
H 0.2096695785 1.4042154729 -1.5307472759
