13
0
C -1.7754480382 -0.2617414534 -0.1589272252
C -0.3557858553 0.0132960505 -0.4284706394
N 0.6333754702 -0.7898090589 -0.5545618833
C 1.7496199594 0.1778595368 -0.4692708888
C 0.7891370618 1.2238728659 -0.463088552
O 0.6619435018 2.4104992719 -0.4834408896
H -2.0147532832 -1.3247995146 -0.226145203
H -2.401168569 0.2982635789 -0.8560767137
H -2.0243353221 0.0966309172 0.8438666477
H 0.4568918994 -0.2139340015 2.6789219106
H 0.6379616225 -1.7999437165 -0.5055137515
H 2.6241245557 0.0696338401 -1.0942083638
H 0.990557997 -0.0409833167 2.182718552
