14
0
C 1.7934657039 -0.8835906014 -0.2538563365
C 0.6251506277 -0.0839063899 0.3049370556
C -0.6034518441 -0.1424657035 -0.5949964953
C -1.7838414272 0.64431928 -0.078550125
C -1.7735243978 1.3288548316 1.036333508
O -1.7704807793 1.9376001066 2.0235139393
H 2.6613558977 -0.8315071015 0.4051986697
H 1.5298362744 -1.9372098349 -0.3733225001
H 2.0980084293 -0.5055987551 -1.232759181
H 0.9260106505 0.9602705752 0.4395458573
H -0.3376835958 0.226476384 -1.5913207382
H -0.9029419225 -1.1875733706 -0.7272191004
H -2.7160652352 0.6711654924 -0.6286253807
H 0.3633396185 -0.460291913 1.2991848272
