19
0
C 2.7443843239 -1.1571618176 1.1528352279
C 0.6999650447 1.0560355107 -0.5699039584
O 1.7415570416 -0.2788466425 1.6018645419
C -0.5975448481 1.5438296373 -0.3734482004
C -1.7816169339 1.2237577941 -1.3272282916
C -1.7100005173 0.431749612 -0.1145110215
C -1.4026534888 -1.0412250829 -0.0851663737
H 2.6995312995 -2.0598140455 1.764108425
H 3.7469422282 -0.7246347892 1.2531393402
H 2.6019439595 -1.4470715756 0.1040584758
H 0.6578542838 0.2032197626 -1.2671220773
H 1.6968373188 0.4711090318 0.9741307625
H -0.7460895581 2.4171457597 0.2520995543
H -1.5055932388 0.7568062104 -2.2640136793
H -2.5083296273 2.0216330878 -1.4048611365
H -2.3253939484 0.768719075 0.7117779997
H -0.8980920019 -1.3766280118 -0.9902533789
H -2.3434646531 -1.5908701762 -0.0101925773
H -0.7804906844 -1.2957583399 0.7734763674
