10
0
O -2.1687698965 -1.1554484737 -0.0623361102
C -1.4380413197 -0.0027299291 -0.0450462533
C -0.1873891889 0.0442809807 -0.4324470413
C 1.0209432078 0.1432578686 -0.8203108944
C 2.2779297533 0.2110895474 -1.0474404804
O 3.4093046196 0.2826173579 -1.3011830845
H -2.9566405762 -1.0325878181 0.4685614852
H 0.7913010071 0.2785857734 2.3153119994
H -1.9205240338 0.9137427298 0.2787039251
H 1.0791114272 0.5539409632 2.9455704543
