16
0
C -2.1100976302 -0.3308612643 -0.1345721472
C -1.3533733158 0.787371025 0.5281981706
N -0.6042072941 0.5641882313 1.7623502455
C 0.1273850408 0.8370125998 0.5327251846
C 0.9487205625 -0.2222567899 -0.1246772059
C 2.0919683542 -0.8725633625 0.5781243688
O 0.9911545493 -1.533045825 0.5176432061
H -2.3297210067 -0.0830532612 -1.1753777871
H -3.0613661654 -0.4999279053 0.3738065754
H -1.550781671 -1.2676281599 -0.1212713225
H -1.8702694908 1.7425448808 0.522700588
H -0.5685462084 -0.427266849 1.9795572779
H 0.6151522701 1.8080361436 0.5154063096
H 0.9234767986 -0.289808939 -1.2075432098
H 4.1753658955 -0.1523984023 -2.0693050168
H 4.0622583112 -0.2921521219 -1.3452772372
