13
0
C 1.7703488363 0.0249747264 0.3734259332
C 0.3144295736 0.1963880257 0.1083865472
C -0.5907747368 -0.9526767459 -0.1952587305
N -1.8603118935 -0.2672087535 -0.3721482563
C -1.8466341245 1.0445960989 -0.227397813
C -0.4235198778 1.3151779139 0.0838215777
H 2.2431971832 0.9832927801 0.5845152501
H 1.9408086496 -0.6377855342 1.2257127099
H 2.2742661514 -0.4236265395 -0.4866852475
H -0.2938766042 -1.4894729931 -1.1020789488
H -2.7015904394 -0.7726841729 -0.5922692317
H -0.637120189 -1.6756267616 0.6255812017
H -0.0452465289 2.3123509554 0.2671540082
