16
0
C 1.5601110126 -0.7772857844 0.9427563486
C 0.1397954299 -0.5563584044 0.5548102673
C 0.2791806814 1.158381097 -1.3419770247
C -0.3957695445 0.7162514744 -0.043098363
C -1.8390925761 0.3412462116 -0.2100389549
N -2.1149579047 -0.8418641222 0.1816512042
C -0.8947401971 -1.3959280387 0.6550029747
H 1.8809320186 -0.0564783985 1.6994515994
H 2.229429557 -0.6631783176 0.0854866918
H 1.7022080263 -1.7789920948 1.3487981848
H 1.3329838025 1.3849931473 -1.1736104228
H -0.1958142263 2.053791769 -1.7455620623
H -0.3274171196 1.5290381975 0.6929699669
H -2.5985789833 0.9953133657 -0.6286055675
H 0.2143735037 0.3686128714 -2.0926963857
H -0.8933774803 -2.4066889735 1.040960543
