9
0
N -0.9412335303 -0.7678202135 0.6401350265
C -0.3594257195 0.1913027698 -0.3519197028
C 0.7848346829 1.033147751 0.0430033542
C 1.0620093171 0.0121665528 -0.6932214224
N -0.3466575271 -1.6570747025 1.1863485464
H -1.9549929734 -0.5857713925 0.8023124022
H -1.1270890203 0.5168580162 -1.0546355131
H 1.0983294824 1.8865138027 0.6172086822
H 1.7730862883 -0.609489584 -1.2050893731
