12
0
C -1.165032584 1.3675573505 0.0925458033
C 0.0234891624 1.2587580262 -0.4896230754
C 1.0910983993 0.3482942482 -0.0656138485
C 0.9732504636 -0.9439008549 0.2549903925
O -0.3707648084 -2.8547834942 0.5668091012
C -0.2564099034 -1.7420518318 0.1155397161
H -1.4302224459 0.7735141464 0.9597746514
H -1.8997751862 2.0794677505 -0.2623100473
H 0.2722892692 1.9278883736 -1.3092139567
H 2.0823164038 0.7925622283 -0.0144759136
H 1.8376750241 -1.4958919891 0.6081917026
H -1.0770637946 -1.2804219537 -0.4635615255
