8
0
O -2.4431380343 0.3882164305 0.2014047751
C -1.4461359305 -0.0743384465 -0.2711096861
N -0.1757440196 0.1964385111 0.2302835182
C 0.9154350591 -0.3459814749 -0.3320231226
O 1.9685279397 0.0846076509 0.3475907396
H -1.4097463257 -0.7512669228 -1.1364631337
H -0.1254573105 0.8188798314 1.0338733446
H 2.7507856217 -0.3019915798 -0.0523124352
