14
0
O 1.8194709322 0.9627880963 0.4147769989
C 1.3741977774 -0.29486733 -0.0711741431
C -0.1224472227 -0.3592716977 0.0295789873
C -0.8611354455 0.7129678621 -0.7295137158
O -2.2574311456 0.7094311019 -0.5468308224
C -0.7332362436 -1.3144098873 0.7145934729
H 2.7466007402 1.0665905022 0.1974932314
H 1.8159314561 -1.118307133 0.5005189887
H 1.6674350354 -0.4200901299 -1.1234778259
H -2.442398571 0.9635013172 0.3596230315
H -0.4266048058 1.6856287997 -0.4729183306
H -0.6941003888 0.5660464346 -1.8013539656
H -0.1686149118 -2.0630091894 1.2575737826
H -1.8134402067 -1.3867977467 0.73861731
