19
0
C -3.192027427 -1.0177841313 -0.0643389053
C -1.9123121785 -0.8259368151 0.2101306925
C -0.8423805668 -0.6787726305 -0.8315018466
O -0.0828367859 0.4973150641 -0.6562738092
C 1.0132538828 0.3852722651 0.2410896212
C 2.2260746145 -0.2119319844 -0.4586144103
C 1.2868093003 1.7775138304 0.7742682155
H -3.5485739404 -1.0673212873 -1.0883930405
H 0.4082806433 2.168834988 1.2877267245
H -3.9319063962 -1.1366614466 0.7178027672
H -1.5869027017 -0.7711019728 1.2462982796
H -0.1918333848 -1.5640973902 -0.8243901041
H -1.2966669488 -0.6200446694 -1.822890304
H 0.7290734826 -0.2659294464 1.0802487609
H 2.0074647627 -1.200552878 -0.8663301958
H 3.0604260108 -0.3168364613 0.2378578379
H 2.5367817531 0.4355796421 -1.2809192524
H 1.5276472849 2.4514507209 -0.0504069976
H 2.1278145951 1.7681766026 1.4698609665
