15
0
C -1.8397469139 1.5874695212 0.0419491888
O -2.2586994256 1.5908843609 -1.0805100029
C 0.8315682277 -0.1136897328 -1.1951039671
C -0.0222778581 -1.2005500675 -0.6191016814
C 0.1737800223 -1.2789172479 0.6858284928
C 1.1808147188 -0.2509685799 1.1050609537
O 1.430392403 0.511745515 -0.0656760919
H -2.4895589287 1.336160292 0.902291392
H -0.7868855221 1.8319316897 0.273642855
H 0.2533108012 0.628003246 -1.7556119368
H 1.60511034 -0.5142524811 -1.863982667
H -0.6795344657 -1.8188629721 -1.214496913
H -0.2866788047 -1.9794186144 1.3689462071
H 0.8134664948 0.4147710054 1.8950576937
H 2.1092719111 -0.7115669344 1.4696624771
