12
0
C -2.2532169239 0.111352259 -0.8540225436
N -1.061935002 -0.1831141073 -0.37460229
C 0.1762078714 0.0710564605 -0.7965619648
N 1.2450529884 -0.4566963854 -0.0553625554
C 1.9748604174 0.2709166874 0.8453533723
O 2.9716627684 -0.1255104823 1.3926513469
H -1.0661615856 -0.7039248066 0.4962168869
H -2.3297136612 0.6656548164 -1.775298535
H -3.1174246696 -0.2001917954 -0.2948204104
H 0.3146076491 0.5897556512 -1.7330296833
H 1.6685415533 -1.3368076636 -0.3194762395
H 1.5331465943 1.268356366 1.0239186161
