15
0
C -0.8291268416 1.6063203907 -0.3378383496
C -0.734808406 0.1929620243 0.1550408273
C -0.0123525167 -0.7749197025 -0.7393479332
C -1.2580485157 -0.2210884294 1.3004993438
O 2.0352992609 -1.6222208064 0.8217930646
C 2.2540436175 -0.8642419954 -0.0760017963
O 1.3597875122 -0.3774483117 -0.9372251944
H 0.1662237515 2.0322696793 -0.4832526409
H -1.3749506773 2.2363131554 0.3636179459
H -1.337392963 1.6460567988 -1.3054701431
H -0.4421313041 -0.7709546133 -1.7423545309
H -0.0408883955 -1.7841229975 -0.3323878317
H -1.8082830834 0.4524335976 1.9475081421
H -1.1464834899 -1.2464813883 1.6322106555
H 3.2464620511 -0.4645414016 -0.326720559
