12
0
O -0.7081688279 2.8083583932 0.4231342015
C -0.204177661 1.745309257 0.2529018312
C -0.8859851095 0.401058299 0.0866771724
C -0.0107991335 -1.8400267827 -0.2338714337
N 0.2289516676 -0.5357070396 -0.0783589968
C 1.3377537365 0.1705060133 -0.0330655664
O 1.1216169698 1.531475987 0.1709645136
H -1.4741019164 0.1480460967 0.9667719336
H -1.5242047912 0.3956858849 -0.7951603383
H -1.0357542463 -2.1634963752 -0.2526883276
H 0.8197444918 -2.5124981214 -0.3621193924
H 2.34392282 -0.1926206123 -0.1069575969
