9
0
O -1.6643090631 0.6697427391 0.1127505008
C -0.3338886003 0.6674704507 -0.1610664445
C 0.3633565586 -0.444819234 0.0705012738
O -0.1647441146 -1.5925437376 0.5655099436
C 1.7656052521 -0.4852755515 -0.2037593286
N 2.891670937 -0.5002106198 -0.4295253192
H -1.1067502549 -1.4529346794 0.7081213825
H 0.1280692402 1.5605026096 -0.5584275095
H -2.0526489549 1.5186910231 -0.0988554989
