17
0
O 2.970252973 -0.0727702785 -1.7053208039
C 2.5191810734 -0.2477582857 -0.3580256972
C 1.0525788849 -0.2396809238 -0.186879264
C -2.0064639492 -0.80258556 1.0176918069
C -1.8075158298 0.2805876986 -0.0553732553
C -0.727316197 1.2395360576 0.2551289727
O 0.5154689141 0.9054058786 0.1631535973
H 2.5536669139 0.7192561664 -2.0510603049
H 2.9557848087 0.5193732549 0.2933607725
H 2.9280308001 -1.2132998004 -0.0560879388
H 0.40025027 -1.044485613 -0.4945085387
H -2.3844377765 -0.3598285289 1.9396492278
H -2.723480031 -1.5530857501 0.6810376736
H -2.7359379629 0.8386536503 -0.187228403
H -1.5890476912 -0.2006557934 -1.0215938231
H -1.0723024693 -1.3143539604 1.2545711469
H -0.8706737309 2.2539927877 0.5939908313
