16
0
C 2.220486549 0.7133630322 -0.318572565
C 1.6933820313 -0.5900809944 0.2574844563
O 0.4500672745 -0.4607208292 0.9105279952
C -1.9078018776 -0.4598133666 0.8091514263
C -2.918398592 0.392858431 0.8336401909
C -0.6410763805 -0.2427589485 0.0471087094
H 3.2259877153 0.565067653 -0.71770678
H 2.2678528046 1.4797521295 0.456787305
H 1.5942957967 1.0831567655 -1.13235069
H 1.6176501493 -1.35275274 -0.5316864512
H 2.3812973605 -0.9677911604 1.0160634635
H -1.964745943 -1.3966302381 1.3563301468
H -3.8288951001 0.1774769582 1.3792116729
H -2.8741178401 1.3401671745 0.3060747053
H -0.5900277263 -0.9527718382 -0.7943541087
H -0.6272732216 0.7697489714 -0.3765954766
