17
0
C 1.6092604753 0.1153481968 0.45063694
C 0.2769380635 0.5840101792 -0.1493732746
C -0.8605253449 -0.32887541 0.2447566095
C -1.6242267205 -0.9767122925 -0.6281385777
O -0.9855074445 -0.4167724998 1.5910297981
C -0.0141003886 1.9723054575 0.2253850859
C -0.2384410987 3.1082433261 0.5284018152
H 1.8218248983 -0.9076486318 0.137430998
H 1.5685016849 0.1468547366 1.538492631
H 2.4191996769 0.7626278357 0.1150104061
H 1.267766738 -2.9845305776 -1.8912819281
H 0.3479351339 0.5437014419 -1.2389108519
H -2.424040226 -1.6353899292 -0.310124098
H -1.4734423645 -0.8451296381 -1.6893861186
H 0.6600579638 -2.6853559813 -1.5785548808
H -1.7297664304 -0.9830214861 1.8078733107
H -0.4434696168 4.1172502727 0.7971981352
