11
0
C -1.1733742316 -1.5506631444 -0.0868619252
C -0.6586646338 -0.2899133194 -0.719213486
O 1.0454057268 2.228968146 1.1207514863
C 0.2830426702 0.4627966283 -0.2276483291
C 1.2522283809 1.1905739557 0.2501850341
H -2.2425718336 -1.4646153615 0.1218509436
H -0.6531265362 -1.7633781763 0.8460201399
H -1.0431282274 -2.3997661452 -0.7623741529
H -1.1216669709 0.0092542464 -1.6583490624
H 1.8831002638 2.6588537562 1.2938285107
H 2.2830743918 0.9900454144 -0.0282771591
