12
0
C -1.9013157984 -0.1744141827 0.5975470302
C -0.5081983929 -0.4729103642 1.1364553357
C 0.6945678332 -0.0480583736 0.3575850913
O 0.3203169594 0.5632172097 -0.7310630756
C 3.2450593087 0.7059044895 -1.0390555907
O 4.2860805246 0.4846440589 -0.6838376336
H -2.0545115793 0.8976589332 0.4667544972
H -2.0604007473 -0.6469748419 -0.3726918414
H -2.6653463752 -0.5435265626 1.2833235467
H -0.3576242443 -1.5461968286 1.3085698389
H -0.3542082152 -0.038878385 2.132695455
H 1.1285037268 0.8231108475 -1.2055406535
