9
0
N -0.542308181 -0.8943354542 0.7717460533
C 0.2896315471 0.1628908024 0.2654966792
C 2.1256753131 -0.8078113638 -1.2777680337
N 1.30078774 -0.3654768827 -0.5839671008
C -0.4510952565 1.2216698141 -0.4706226337
N -1.079787177 2.0281743312 -0.9880296585
H -1.1349254444 -0.5606139619 1.5187187212
H -1.1193984179 -1.2950065191 0.0441954367
H 0.7837738766 0.6459732341 1.1119265361
