16
0
C 3.0144681345 1.6361953661 -0.2351710542
O 2.0748952029 0.579912726 -0.2322873077
C -1.1352546234 -0.5065330444 0.0951185235
C -1.9392563474 -0.8193010388 -1.1371269088
C -1.567140139 -1.1370416671 1.3908692426
C -0.0934451799 0.275250396 0.0411841176
N 0.8064226248 1.115790831 0.0167797734
H 3.0354448552 2.1462412424 0.7311867732
H 3.9792886655 1.168197617 -0.4259630525
H 2.7913152765 2.3597834243 -1.0232728376
H -1.9410304043 -1.896058797 -1.3263487103
H -1.544222485 -0.3156941843 -2.0176310462
H -2.978884984 -0.5109523309 -0.9969365769
H -2.5958099277 -0.85082893 1.6262740032
H -0.9264202627 -0.8398407724 2.219200222
H -1.5424174057 -2.227016838 1.3085768388
