13
0
N 2.4082751578 -0.0288602372 -0.0443639224
C 1.2993134215 0.4431987358 -0.345840692
O 0.7247507241 1.4639609643 -1.0268679703
C -0.1107121848 0.4699365381 -0.3411119553
C -1.3279392866 -0.2146356451 -0.7819822196
C -1.3079929213 0.6418107487 0.4843681202
H 1.0207002466 -1.8748372846 1.376979072
H 3.1710209693 0.5223294779 -0.4299310582
H 0.414690945 -2.2006319008 1.6682763843
H -1.8415158931 0.1987538658 -1.6404963372
H -1.3694419172 -1.2918454907 -0.6865163064
H -1.3341994695 0.1515704907 1.4486805923
H -1.8108287918 1.598999737 0.4328162927
