10
0
O 1.3202124485 1.1622256387 0.007768016
C 1.5426992105 -0.0874385085 0.2928379142
C 0.3834900176 -0.9147375938 -0.1391455361
O -0.6965355157 -0.2690795853 -0.8246255003
C -1.5714273855 0.3837240272 -0.0591520002
O -1.5488640659 0.4449993091 1.134557914
H 2.073910515 1.6840833842 0.3038888341
H 0.7692013089 -1.6728780772 -0.8240948221
H 0.0229122339 -1.4294552485 0.7568721681
H -2.3317077673 0.8532486538 -0.6972079877
