17
0
C -1.1250852025 -0.6434557328 0.5783571658
C -1.9399527559 0.8866790834 -1.367688443
C -1.1129590618 0.0541676368 -0.7645823458
C 0.270210248 -0.4672555765 -1.0874728249
C 0.400567407 -0.9231032682 0.3894419539
C 2.059012337 0.8980028729 0.9657539828
C 1.2603588845 -0.1039908608 1.2982744797
H -1.726438776 -1.5548923848 0.5787162592
H -1.4021843577 -0.0346800343 1.4403128077
H -1.6987847537 1.319162118 -2.3320851778
H -2.8839779912 1.1700841186 -0.9164709377
H 0.2463975208 -1.315457513 -1.7747224629
H 0.9930891621 0.2568609237 -1.4623565439
H 0.6643196036 -1.9762061611 0.5099485274
H 2.1824428789 1.2271206704 -0.0591776365
H 2.6254584123 1.4323231226 1.7183258519
H 1.1833034449 -0.3773900146 2.3494243443
