14
0
O 1.4943069635 -1.1778861745 -1.4222348767
C 2.106526301 -0.2084390256 -0.8241563078
C -1.4398653292 0.4528568189 -0.5831164368
C -0.9565047263 0.0209975368 0.7879365854
O 0.2741800721 -0.6898741546 0.7518370897
C 1.4262983699 0.0930841164 0.4892399434
H 0.7271332055 -1.4777064248 -0.8762151949
H -0.7267797957 1.1202921467 -1.0719938089
H -1.5987914113 -0.4108628551 -1.2314301578
H -2.3878409434 0.9865960559 -0.4945420526
H -1.6709980528 -0.6620405418 1.2495738261
H -0.8502461906 0.8871793392 1.4514072157
H 1.2118554697 1.1671853868 0.5176566835
H 2.1762000678 -0.0993952241 1.2660484915
