15
0
C 1.3795703467 0.7228118304 -0.4672094839
C 0.4151902705 -0.1269944186 0.348100133
O 1.046218984 -0.3870336383 1.5855331961
C -0.96278611 0.5665234469 0.506194218
C -1.7268463165 0.012299989 -0.6351321742
O -1.1607288863 -1.0888839275 -1.0177925858
C -0.0118816824 -1.363348301 -0.400145916
H 0.9299673352 0.9900804111 -1.4272206701
H 1.6175540662 1.6428809828 0.0716434691
H 2.3035603559 0.1724016413 -0.6446500493
H 0.6059276576 -1.1499561511 1.9702390713
H -1.4128442539 0.1984213324 1.4459257315
H -0.9123085043 1.6532854223 0.5586799579
H -2.7452897269 0.1683698516 -0.9536858848
H 0.6307434642 -2.0328774712 -0.9543620127
