13
0
C -0.5580640219 1.4777312463 -0.2671137673
C 0.0278457229 0.3597468608 0.5941892525
C -0.3865030613 -1.074060274 0.1879625987
C 1.4775687035 0.0695052699 0.2410888536
C 0.9896466935 -1.1366517913 -0.5055665127
H -0.0406595746 2.4205472978 -0.0859873566
H -0.4768653 1.2467040944 -1.3315957235
H -1.6156539102 1.6087084509 -0.0330974034
H -0.0877796203 0.6367243939 1.6469232724
H -1.2803333167 -1.1944450766 -0.4274392658
H -0.4555090409 -1.7478091793 1.0410780132
H 0.9133417919 -0.7840205013 -1.5460768586
H 1.6106479342 -2.0336507915 -0.5250111024
