11
0
O 0.3376229885 1.4569672614 -0.6035958229
C 0.0091597317 0.3805217355 0.2363060202
C -1.3552446055 -0.1507898483 -0.1477291117
N 1.2847784139 -1.8979656904 0.1986963216
C 1.0607391502 -0.6747212079 0.138281996
O 2.3539632432 -0.5822510528 -0.0281283243
H 1.2355756023 1.747505962 -0.4216226839
H 0.0048860819 0.6902862009 1.2921243376
H -2.0997785959 0.6311881838 -0.0064279702
H -1.3596268445 -0.4567932584 -1.1936351199
H -1.6213891656 -1.0062752859 0.4744333577
