15
0
C 0.1918977144 1.2010634927 0.5461741204
C -0.4237830421 0.100722266 -0.3423419917
C -1.6549273851 -0.5048113814 0.3215212844
N 0.555251095 -0.9553989255 -0.6463011086
C 1.8904274027 -0.6868059958 -0.3224563789
C 2.1011027776 0.6361316461 -0.3094920917
N 1.4105742615 1.6565326653 -0.175331144
H 0.4440266421 0.7994790958 1.5318942287
H -0.7253648812 0.5846603304 -1.2799534758
H -0.5152050577 2.0218669614 0.6637751416
H -2.1042657302 -1.2662819223 -0.3176266121
H -1.3832801089 -0.9759494288 1.2675868342
H -2.4097783982 0.2605103695 0.5115600334
H 0.36441755 -1.442669857 -1.5095068194
H 2.5819261599 -1.4717133164 -0.0631200205
