14
0
O -1.6993932131 0.4782742347 -0.5261070801
C -1.4355235044 -0.7387509358 0.1144278161
C -0.1516801345 -1.4014647867 -0.2989365025
C 0.6643255419 -0.9554499798 -1.2413405021
C 1.3392101893 1.8334064719 1.0291308869
O 0.20676204 2.1972641664 0.8652793115
H -1.1216436218 1.1501103341 -0.1405967858
H -1.4369538073 -0.6237935036 1.2085129627
H -2.2663890427 -1.4122080493 -0.1202604238
H 0.0857781134 -2.3207047505 0.2328995119
H 1.5700548402 -1.4889389389 -1.5026324212
H 0.4297471977 -0.0546643061 -1.7973433771
H 1.7097828495 0.885486877 0.6022873809
H 2.0510675519 2.4385021664 1.6178242226
