14
0
C 1.6408104139 0.4676973324 -0.4131484671
N 0.9381200691 0.0206871939 0.7723302511
C -0.2640439555 -0.6240918828 0.7604351153
O -0.5587739327 -1.1766923849 -0.4804849519
N -1.0594755317 -0.8691407686 1.7045509792
C -1.2997097551 -0.4375740614 -1.3261357122
N -1.5685122969 0.7723785944 -1.1296000276
H 1.1310854186 1.2938554742 -0.9157047159
H 1.7547605326 -0.357378024 -1.114467117
H 2.6379394481 0.790729662 -0.1169204436
H 1.1241926313 0.5298537044 1.617640355
H -0.7429492766 -0.4625184512 2.5783135482
H -1.5933790288 -1.0522702845 -2.17733583
H -2.1393277365 1.139149896 -1.8819389838
