15
0
C -2.0455015779 -0.4024545298 -0.3186380051
C -0.7509365571 0.2105655236 0.0603715524
N -0.5749341335 1.4923535309 0.6795863279
C 0.8922756579 1.2019112623 0.7098693524
C 0.5392919757 -0.1406722254 0.1283351966
N 1.2567136438 -1.3327498943 0.0387692755
O 2.2322534056 -1.2454726016 -1.0016430267
H -2.5867423284 0.2357999206 -1.021780018
H -2.6828443526 -0.5401715028 0.5579261438
H -1.8938709569 -1.3726500772 -0.7932956364
H 0.6407456709 -2.0893883508 -0.234926767
H -0.8313804969 2.2790660863 0.0925460195
H 1.2922489008 1.1923469097 1.7250103834
H 1.4848822641 1.8626541855 0.0749260834
H 3.0504158842 -1.4687932371 -0.5522578815
