14
0
C 1.2146420777 0.9176882763 -0.4462659721
N -0.0630455965 0.2605454635 -0.6501496449
C -0.3249047029 -0.776355411 0.2998605091
N 0.6093051704 -1.8270233097 0.4192836655
C -1.4606724881 -0.7945859484 0.9754625844
O -2.4366194449 -0.9188502713 1.5978848477
N -1.1568715834 1.1506290188 -0.6375889963
H 1.9990826365 0.1639688062 -0.3980503001
H 1.230958385 1.5064262867 0.4865130079
H 1.4153942382 1.5806458492 -1.2891578797
H 0.9598936978 -1.9854266364 1.3489919649
H 0.3378849455 -2.6900275599 -0.025915809
H -0.9937544717 1.9201582489 0.0091570615
H -1.2902578633 1.5272741871 -1.5650600388
