12
0
C -1.5912748012 -0.2147551324 0.0695653585
C -0.1439557004 0.1248133741 -0.010453646
C 0.4217501712 1.3080982171 -0.161632154
O 1.8320537862 1.2044781172 -0.1878336237
C 2.2514574683 -0.0316584224 -0.0566867138
C 0.9932457488 -0.8500876278 0.0698258934
H -2.2181008611 0.6723461216 -0.0186003167
H -1.8222768947 -0.702035834 1.0197707202
H -1.8700227207 -0.9113783449 -0.7243711226
H 0.0329750964 2.3087625928 -0.2654456011
H 1.0360943929 -1.4109632886 1.0105397993
H 0.9908163144 -1.6075167727 -0.7225195935
