14
0
O -1.4150006237 1.4386556478 0.6123759962
C -0.6222069797 0.5741008452 -0.175851042
C -0.6394471399 -0.8356979164 0.3975631103
C 0.6894218763 -1.4098891537 -0.1049530642
C 1.6864548297 -0.3309673749 -0.2994753698
C 0.8799020495 0.9004707987 -0.1799987461
H -1.4521507205 2.2986400574 0.1906205587
H 1.1652171695 1.1591693097 0.8610830509
H -0.9965995508 0.5614991654 -1.2095394618
H -1.5150837695 -1.4120408208 0.1001470194
H -0.6398021931 -0.7637608578 1.4889100172
H 1.0687642866 -2.3024460092 0.3933743405
H 0.599745225 -1.7040095357 -1.1716316726
H 1.2107715405 1.7425268442 -0.7906277368
