11
0
N -1.4959719176 0.9775444592 0.7647084944
C -0.8842332057 -0.2071825699 0.5147575927
O -1.3649228518 -1.1091756519 -0.1455676988
C 0.4272398021 -0.4054043887 1.2297569594
C 1.3946287868 -0.3870892259 -0.9821207402
O 1.451498461 -0.5071719086 0.467944456
H -1.1748755109 1.5338462254 1.5378209387
H -2.4555953555 1.0778078958 0.4779648539
H 1.0179410929 -1.3201207146 -1.3924865566
H 2.4173599036 -0.2014212109 -1.2976156417
H 0.745472795 0.4400610901 -1.2663256577
