12
0
N 0.234577656 0.206735043 1.8399934079
C 0.1535756839 -0.7192711851 0.7992032018
C 0.4445290585 -0.1344738963 -0.5392277131
C -0.5267048582 -1.2998451707 -0.9195587104
N -0.5705727083 -1.7379039831 0.5151316733
C 0.1716944376 1.3104281483 1.1740978912
N 0.0835282386 1.2311974675 -0.2072306893
H 1.4444852453 -0.2204151059 -0.9674475636
H -1.509954458 -0.9592176742 -1.2407166774
H -0.130738366 -2.0374804026 -1.6216054345
H 0.1497914833 2.2841680154 1.6504479678
H 0.3669335872 2.0166957436 -0.7672163537
