11
0
N -1.2249906845 0.6240335749 0.6154135354
C -0.5676736252 -0.3420504189 0.0010232783
O -1.296468229 -1.1311749345 -0.7689625727
C 0.8305155026 -0.5381650477 0.179542242
C 1.6803395719 0.5694480081 -0.4580680951
O 1.4027663848 0.4379908227 0.9878481072
H -0.6540640614 1.2231134554 1.1945552915
H -2.1179938322 0.9335752547 0.2738883803
H 1.2055476581 -1.5590957952 0.200229675
H -0.7206246832 -1.7512278524 -1.2295430328
H 0.9919069983 1.368299933 -0.8123318092
