16
0
C -1.4184702097 -1.7478061262 -0.5200604557
C -0.9316373319 -0.333241616 -0.78483292
C 0.5627933414 2.5575378405 0.7174189498
C 0.7823016331 1.4887091294 -0.2340112439
C 0.282888164 0.0872131535 -0.0080988698
N 0.8056007854 -0.7422879052 0.7979515698
O 1.9211827446 -0.2216242496 1.4478443813
H -2.2994023538 -1.9611741624 -1.1269935509
H -1.6806671541 -1.8845585683 0.5292153654
H -0.6484280249 -2.4807229479 -0.7612002869
H -0.7044548161 -0.2014279291 -1.8489659253
H -1.7262238345 0.3909409802 -0.5709817064
H 0.39649817 2.0735851841 1.6983552376
H 1.8725618872 1.5522322587 0.0515161341
H 0.7366145292 1.7909022479 -1.282704098
H 2.2269624698 -0.9615182896 1.9754554191
