12
0
C -1.0508462979 0.0825609931 -0.7574521504
C 0.3346722524 -0.501657078 -0.6160526763
C 0.1227966539 0.9814723631 -0.6427458827
O 0.4858040389 1.1391432237 0.7232815212
C 0.858577528 -0.2594824851 0.789701234
O 0.3465107221 -0.9328729367 1.8708132633
H -1.4746859746 -0.0285836619 -1.7476942369
H -0.6133221546 -0.9154857246 1.8233210261
H -1.7714672114 0.0499757016 0.053107587
H 0.7712299787 -1.1683800301 -1.3437762908
H 0.4268367396 1.7388142345 -1.3508073673
H 1.9442397247 -0.3468365996 0.8589829729
