16
0
C 1.5825903127 0.8023111192 -1.5547213531
O 1.2004728924 0.1650860912 -0.3545983396
C -1.2520013113 -0.1962847409 1.9767278191
C -0.6826511445 -0.4079689449 0.7985188105
N -0.0536967031 0.6376199016 0.052926059
O 0.1690596619 1.7581298686 0.861351145
C -0.7250322009 -1.7096616728 0.0606614532
H 2.5215156614 0.3385445748 -1.8535813371
H 0.8283164308 0.653041965 -2.3318209751
H 1.7494155585 1.872616664 -1.3992033807
H -1.1949587557 0.7582436772 2.4766160739
H -1.7963247239 -0.9986880261 2.4555831893
H -0.2032313487 2.481097353 0.3503728713
H -1.0616873656 -1.558154937 -0.9670279642
H -1.409631352 -2.3950496073 0.5572963305
H 0.2637563881 -2.1664632857 0.0193425978
