12
0
N 2.5207508246 -1.6534376749 0.5948180631
C 1.6757919275 -0.9996656491 0.1779730827
C 0.59965267 -0.1666370956 -0.343981718
C -0.6788800692 -0.8471507383 -0.7838448829
N -1.6659629144 -0.0309418237 -0.5957226823
C -1.3149154445 1.0941251398 0.0409817067
N 0.0416558918 0.7543461422 0.684562676
H 0.9815111781 0.494328924 -1.1412567683
H -0.7123626306 -1.7407269313 -1.3864399632
H -0.0728918646 0.2346757656 1.5656415996
H -1.9993278532 1.5396424786 0.7517702181
H 0.6283242846 1.5664194624 0.8406256684
