14
0
C -0.9484352112 -0.9480105521 0.1720159102
C -0.0207796375 0.1673395664 -0.1511619465
N -0.4622624418 1.4345285853 0.0173690445
O -1.4771447635 1.6654924141 0.9314000133
C 1.2554371537 0.0047721448 -0.7223595179
C 2.1074524553 -0.873525232 0.1863283875
O 1.5680108835 -1.32200359 -1.0575048218
H -1.8336514894 -0.871848886 -0.4673162732
H -0.4558649566 -1.8948948455 -0.0272518434
H -1.2896649075 -0.8963365263 1.2056888518
H -2.2338493737 1.9405812112 0.4047252886
H 1.7315346051 0.8141971649 -1.2663984421
H 0.2258161189 2.1727939843 0.0470617741
H 1.5319525649 -1.354672439 1.0054825749
