11
0
N 2.1905731153 0.5955274197 0.5459071976
C 1.4010308583 -0.3154122694 0.4036864727
C 0.5193614693 -1.2892952919 0.293224248
N -0.6235496547 -1.252473633 -0.5136583633
C -1.3273674187 -0.2060746825 -0.6695061744
C -1.2179970609 1.0842489194 0.0728809856
O -1.7616920427 2.0842767457 -0.3155147933
H 2.9381991997 0.6738414657 -0.138989523
H 0.773432943 -2.2504430627 0.7213150208
H -2.1510030579 -0.2504737663 -1.3811602186
H -0.6618543506 1.0651501555 1.0276871479
