9
0
C 1.513770418 -0.1944422409 -0.082641098
C 1.7311199027 1.0855487746 -0.2342068297
O 1.9151730732 2.2193366155 -0.3666015967
C -2.0291451692 -0.4174082285 0.1975545967
O -1.6562551766 -0.8812622755 -0.8422320834
H -1.3149190054 -0.0472664345 0.9568616905
H 2.1748949205 -0.7693723652 0.5469659837
H 0.6914744871 -0.6540385014 -0.6157303956
H -3.1038284503 -0.3382783441 0.4446817327
