12
0
O 0.441319195 2.1052433764 0.4386513898
C 0.1509276604 0.817646187 0.1655393713
C -0.9919675986 0.2126934689 -0.1218543322
C -0.7188514452 -1.2443707972 -0.3393544317
O 0.6821202119 -1.4018423015 -0.1263462409
C 1.2840391496 -0.1596359491 0.1691865953
H -1.9714854127 0.6641609285 -0.1965076954
H -0.3598553093 2.6326547056 0.4028758213
H -1.2633139267 -1.8881615207 0.3619277754
H -0.9693912374 -1.5737816633 -1.3555733683
H 2.0371336226 0.0966047724 -0.5863401178
H 1.7827910905 -0.194966207 1.1451802333
