13
0
N 1.8021429068 0.5626684634 0.1442391637
C 0.4883115513 0.3762918648 0.0688887011
C -0.2204844914 -0.9138602023 0.4354104953
O 0.5022885561 -2.0314076556 -0.0235184478
C -1.6520856021 -0.7658722323 -0.0060009123
C -1.7451212063 0.5208984092 -0.3315784815
N -0.4277165443 1.2281493649 -0.2714385683
H 2.2491510683 1.4083709463 -0.1602225387
H 2.3712808816 -0.258837347 0.2570767024
H -0.1618782803 -2.5922670545 -0.4365158393
H -0.2360576181 -0.9013938321 1.5406401432
H -2.5661260138 1.1435702864 -0.6593134692
H -0.2531052076 2.1843749889 -0.5397659487
