12
0
C -1.2777030726 -0.6546722048 -0.156661763
C -0.7550615846 -0.1836991113 1.1815356968
O -1.4234544051 -0.3272731034 2.19257833
C 0.5375215032 0.4435950007 1.295320539
C 1.4847951948 0.5142911502 -0.9203848396
O 1.4066347514 0.6934667643 0.3401755999
H -1.3617408356 0.1769190865 -0.8620425219
H -0.6167954356 -1.4073321722 -0.5955585786
H -2.2618568139 -1.0910658289 -0.002576945
H 0.8872396675 0.7749539159 2.2602896883
H 2.3985542546 0.8751018663 -1.3658072122
H 0.694855776 0.0405696366 -1.4808649935
