15
0
O 0.9553911561 -0.6093597722 -1.9827500561
C 0.4674554606 -0.3310852601 -0.9187397098
C 1.1161135542 -0.822439332 0.3792198588
C 1.6659911251 0.3445908585 1.1626482165
O 1.1107947652 0.8474979019 2.099836939
C -1.8209345683 0.037204791 0.1819780102
C -0.7667615961 0.5364020869 -0.8030131846
H -2.1217508072 -0.9878715988 -0.0449453345
H 0.3786937994 -1.3384143068 0.9948738884
H 1.9231101462 -1.4992891205 0.1001477492
H 2.6335122931 0.743754615 0.797998758
H -2.7117945802 0.6628121926 0.1239522581
H -1.4602039204 0.0738112093 1.2104594725
H -1.1724757812 0.6369855544 -1.809828874
H -0.4242980464 1.5307801808 -0.4929459918
