12
0
O 0.7998081157 2.6179513735 -0.1712430137
C 0.4743497793 1.5116772258 0.4378893054
N 1.6381197903 1.5666344427 0.8832993732
C 0.4474702994 -1.3531726033 -0.6029818695
C -0.7628652441 -0.6606559537 -0.0587168563
O -0.793965431 -0.3749194815 1.3272011528
C -0.7593394325 0.7237608723 0.4466905612
H 1.3657704979 -0.9369020488 -0.1898994726
H 0.403554622 -2.4144687485 -0.3544513422
H 0.4754197347 -1.2582336145 -1.6897459094
H -1.7198171477 -1.0009943939 -0.449591323
H -1.6605325842 1.3274499297 0.379240394
