14
0
O -0.5738407429 -0.0461717879 -1.1242992741
C -0.9895584021 -0.3683823113 0.209575692
C 0.1516067756 -1.2855943138 0.6592993968
N 0.9852882802 -0.0289863269 0.5389348259
C -0.2518454557 0.6877814822 1.0322359204
C 0.8300848161 0.1812916671 -0.9046530562
O 1.1853656029 1.4408312761 -1.3359635452
H 0.376359062 1.9431054384 -1.4603752566
H -2.054143494 -0.5869727667 0.232880026
H 0.1123440269 -1.6162743217 1.6948190463
H 0.4371955713 -2.1009798004 -0.0059833481
H -0.3384814616 0.5760452626 2.1103851104
H -0.3374903057 1.7348656357 0.7439356099
H 1.4277497273 -0.5540411334 -1.4476031476
