11
0
N 2.0314264549 -1.4555998574 -0.2175999074
C 0.925005305 -1.3226599625 0.0544611869
C -0.4856116134 -1.0876596541 0.4262522059
O -1.0839040879 -0.0515314195 -0.2915444415
C -0.4723184267 1.21768925 -0.1547304669
O 0.4991315614 1.4671161932 -1.1097223097
H 1.2992616913 0.9724400849 -0.9124105395
H -1.0529269385 -1.9957974348 0.2223614592
H -0.5122176722 -0.904182375 1.5080955909
H -1.2649987486 1.9443445422 -0.3207799809
H -0.0769425252 1.3181326329 0.8669462031
