14
0
C -1.8488834987 0.0301049367 -0.851088887
C -1.2094966734 1.2115346802 -0.1191491244
C -0.5053776909 -0.0601938521 -0.2877659686
C 0.5869454681 -0.7649094034 -0.0857033063
C 1.7829304877 -0.242634536 0.6498737082
O 2.110337579 -1.0413180323 1.775506693
H -1.9568188886 0.1032930424 -1.9271676435
H -2.6574677292 -0.4914498254 -0.3520513961
H -1.5983526911 1.4663411136 0.860209509
H -0.8968116939 2.06253468 -0.7130504601
H 1.3309654715 -1.0988229778 2.3319316072
H 0.6434046114 -1.7886864778 -0.4462182535
H 2.6683758149 -0.2703360232 0.0106264178
H 1.6112414332 0.8015256752 0.9377751045
