14
0
C -0.2007895731 -0.9993461831 -0.9841919374
C -1.5522247481 1.2902446609 0.5941749826
C -0.2366473301 1.1619078395 0.5201287448
C 0.5090282496 0.1997466484 -0.3415327206
C 1.3638846838 -0.8826919697 0.3462993772
O 0.7784354915 -1.9091789773 -0.4634822823
H -1.1953848193 -1.211030549 -0.5786717507
H -0.2423115787 -1.0218749083 -2.0752939628
H -2.224424423 0.6757684344 0.005942042
H -2.0083567162 2.0238027459 1.2470833609
H 0.3882561797 1.8127957471 1.1286202272
H 1.1022778785 0.7535262639 -1.0729732582
H 1.1319817078 -1.0238844654 1.4075180296
H 2.4465059972 -0.8207982873 0.2126941477
