10
0
O 1.9160454605 -0.1298282237 0.5995898843
C 0.696814912 0.0188905142 0.0421064717
N 0.0542158834 -1.1143504489 -0.7407234639
C -1.0865690375 -0.7121817609 -0.3273925191
C -0.6388933214 0.4901546552 0.4801273525
N 0.2598121588 1.2831459176 -0.4003963082
H 1.9811149068 -1.020867658 0.9532105671
H -2.0536971659 -1.1343069603 -0.5865098498
H -1.0236566424 0.9300963521 1.3872221837
H -0.0309481542 1.3064806129 -1.3726833181
