11
0
N 0.0145537277 1.6854427063 -0.4542908608
C 1.5151663354 -0.9352383677 0.3100229482
O 0.536066053 -0.9904899368 -0.5986552658
C -0.7470952306 -0.590153505 -0.153501239
C -0.9150380165 0.9019234221 -0.1306400209
O 1.3800338338 -0.6778126016 1.4682831495
H -0.2762991104 2.6562719341 -0.3733905908
H 2.4670360471 -1.1891006094 -0.1730282557
H -0.9505718611 -0.9882675503 0.8444753077
H -1.4619450942 -1.0275278193 -0.8531137493
H -1.9107036841 1.2301693276 0.192390577
