11
0
N 3.1394656522 0.1885473011 0.2512795269
C 2.0795833921 -0.1838604478 0.0228647985
C 0.7168969492 -0.6303952741 -0.2472908937
C -0.2935719261 0.2129245655 0.5194698919
C -2.528894697 0.2642396909 -0.3682798202
O -1.6045371128 -0.3453507971 0.2941000889
H 0.6205090866 -1.6782887585 0.0426311754
H 0.5287940591 -0.5635001198 -1.3208362456
H -0.11012312 0.1647720233 1.5924348035
H -2.1024247793 1.2548539973 -0.6905824529
H -0.2893295042 1.2541788191 0.1873641274
