15
0
C 1.6986041771 0.1006953968 0.4887719295
C 0.855599702 -0.5118455616 -0.6072897479
O 0.1482100759 -1.6988378439 -0.116073053
C -1.0275087417 -0.9697314984 -0.1357151504
N -2.121255094 -1.1369207112 0.4855664372
C -0.5054810963 0.1020688825 -0.9302839167
N -0.9309459806 1.4059867237 -0.3517006147
H 1.10219183 0.2919555445 1.3867148443
H 2.1524190815 1.0370114545 0.1495627765
H 2.5065131437 -0.5737108788 0.7740343434
H 1.471627437 -0.7846485847 -1.467704769
H -2.120312418 -1.9751303001 1.0560078871
H -1.0526351487 2.1324068344 -1.0496968954
H -1.8439416111 1.2034666665 0.0766117646
H -0.3200553568 1.7660998757 0.3899101642
