14
0
O -0.0021744198 2.4643905022 1.5676296164
C 0.8087327938 2.1829496736 0.6818057273
C 0.8010087923 1.0357059617 -0.1282537624
C -0.0557253771 -0.9959998477 -0.9899354824
C -0.1215611721 -2.2703849585 -0.663040535
C -1.1641093369 0.0361690397 0.8208390701
N -0.1711650209 0.0686090552 -0.0261115558
H 1.642978827 2.8755191213 0.4591189486
H 1.5634084113 0.8532027457 -0.8677175717
H 0.1172629445 -0.6419396699 -1.9974226417
H -0.0314394599 -3.0272223885 -1.4299541543
H -0.2491092253 -2.5946026988 0.3619700541
H -1.2324834207 0.8259713155 1.5520430634
H -1.8828173361 -0.7607658516 0.7126282233
