16
0
C -1.5778589327 0.0769413809 -1.0168172814
C -1.4040345333 -0.9514224571 0.0547150342
C -1.2621741627 -0.6876168873 1.345582422
C 1.5273047752 1.0151944908 0.6024124109
O 0.9848927459 2.0739127249 0.4367231499
C 2.1209439971 0.1821219095 -0.491101209
H -0.8139033568 -0.0343024083 -1.7913538103
H -1.5105646598 1.0881143412 -0.6152123868
H -2.545781443 -0.038914408 -1.5115078579
H -1.402314619 -1.9902475149 -0.2695931603
H 1.6150651198 0.5863321249 1.6220751798
H -1.1467072974 -1.4792819483 2.0762766408
H -1.2637193222 0.3325007351 1.7162830852
H 1.624478851 -0.7917784107 -0.4997226261
H 2.0084697551 0.6724050919 -1.4563170516
H 3.1783180828 0.0017942356 -0.2808845393
