18
0
C -1.4842452641 0.2851956248 -1.0787951596
C -2.027145764 1.2473438346 -0.0311187251
C 0.259012854 -0.0663649009 2.5446112811
N 0.8630267867 -0.6618065561 1.5396641648
C 1.5599889556 0.0540041088 0.4951441292
O 1.6290022685 1.2408588869 0.4825843528
C 2.1556034729 -0.8595983741 -0.5409129509
H -2.2128566549 0.0942950401 -1.8693079808
H -0.5832133768 0.6847341608 -1.5495561504
H -1.231579697 -0.6821907772 -0.6347433103
H -2.2901478488 2.2069930785 -0.4796728995
H -2.9259617409 0.8476948804 0.4429866013
H -1.2914416967 1.4397618499 0.7526269654
H -0.1784866712 -0.8801449468 3.150763577
H 0.8792838513 -1.6713972791 1.4128437683
H 1.3610540415 -1.4068059616 -1.0539337808
H 2.8220850385 -1.5892320583 -0.0757527726
H 2.7095094454 -0.2672076107 -1.26313611
