11
0
C -1.7931469748 0.0739444961 0.4991692641
C -0.4885450261 -0.081709035 0.340236046
C 0.4181843176 0.3527858294 -0.7815874905
N 1.606546694 -0.3969473343 -0.4116960477
N 1.4857283364 -0.8702657307 0.8548961332
N 0.3275429666 -0.7589838104 1.2949639019
H 0.047606033 0.062113681 -1.764417458
H -2.2764118328 -0.3202659864 1.3827756933
H -2.3972508248 0.589711032 -0.2351524697
H 0.593027388 1.4340838998 -0.771684983
H 2.5335499228 -0.0747560416 -0.6304395897
