11
0
O 2.3552420523 0.22692533 0.206817073
C 1.0286823585 -0.0235087103 0.0314240642
C 0.4928135471 -1.0946925765 -0.592344767
N -0.9906931836 -0.7688460227 -0.4414457664
C -1.1655087763 0.4958790953 0.2758100012
C 0.0606508585 0.9321459289 0.5534886443
H 2.8259534044 -0.507574564 -0.198566902
H -1.393665595 -0.7404845013 -1.3761223692
H -1.4268647317 -1.5504918425 0.0438004026
H -2.1488944813 0.8893707733 0.47631703
H 0.3021805473 1.8446130898 1.0802755894
