12
0
C -1.3289494405 -0.3735135723 -0.7371610307
C -0.1196413845 -1.1340929483 -0.2570537623
C 1.3109327053 1.645687477 0.3493820171
O 0.6206779948 2.3648704001 -0.3145022383
C 0.1230553982 -1.3744345797 1.0059357709
O 0.3432008625 -1.5721906444 2.1271765582
H -1.9482550962 -0.9984637031 -1.3827686984
H -1.9439060486 -0.0422576503 0.0990998548
H -1.0298664824 0.5138360133 -1.2976337471
H 0.5952351355 -1.5474402667 -0.957585495
H 1.0871740829 1.4333056538 1.4117437454
H 2.2184272732 1.1635878205 -0.0602299745
