14
0
C 2.0915328932 -0.7850873234 -1.4620041039
C 1.5881964832 -0.3533797675 -0.4649519154
C 0.97963466 0.1959437088 0.7452256964
C -0.2543874327 1.0603894286 0.4789379787
C -1.4783268403 0.3411084757 -0.0064886678
C -1.6082096767 -0.9587107271 -0.2192675275
H 2.5324949519 -1.1729200813 -2.3493523226
H 0.7236819183 -0.6230604612 1.4234818536
H 1.7301790773 0.7991108934 1.2616211439
H -0.5115701958 1.5855057938 1.4050027909
H 0.0032664026 1.8423851794 -0.2423447655
H -2.3349167739 0.9854129745 -0.1901391404
H -2.5466652784 -1.3723860018 -0.5672130533
H -0.7933451887 -1.6586120918 -0.075339967
