13
0
O -0.8001341583 -1.2793059195 0.8658228281
C -1.33155046 -0.5568102257 -0.2175690043
C -0.4534889707 0.6301646678 -0.5777129016
N 0.8971612221 0.1532518426 -0.8628535112
C 1.9843554958 -0.125904721 2.2889701728
O 1.9369496694 0.9945392174 2.3691704952
H 0.1458291267 -1.3590881091 0.6945368189
H -2.3270779176 -0.2151917254 0.0730026491
H -1.449520586 -1.2060450958 -1.099005954
H -0.3980040258 1.2989287748 0.2844401317
H -0.9120501409 1.1887698972 -1.4046418321
H 0.9471381193 -0.2852746219 -1.7730191024
H 1.570414626 0.905285019 -0.8476957901
