15
0
O 2.8231068235 0.0141544649 0.8322366529
C 1.8271482105 0.29601099 0.0460969394
C 0.901927791 -0.8661160945 -0.1165601251
C -0.5700967095 -0.4998817367 -0.2622637416
C -1.1783072014 0.4909003104 0.7839685735
C -1.5383007523 1.3444632266 -0.4068657942
C -0.9724694816 0.5316274283 -1.2933157953
H 2.7771985153 -0.8884304868 1.2144223695
H 1.0349677386 -1.6249990262 0.6789494391
H 1.245087704 -1.3303667227 -1.0541070544
H -1.1530672359 -1.4224400971 -0.3364375329
H -2.0049468062 0.1022589303 1.3830199528
H -0.4318349353 0.9353068928 1.4483426898
H -2.0605041764 2.2890314178 -0.4886874773
H -0.8423014843 0.568438503 -2.3679580959
