11
0
O 2.0674429729 -0.1595459164 1.0500782624
C 0.9006181492 -0.0800357779 0.4318111324
N 0.1732112321 -1.07642853 0.07632527
C -1.2025286031 -0.6473202269 -0.2005460931
C -0.9019413574 0.8101158295 -0.514889154
O 0.3128837784 1.085371122 0.2991593031
H 0.444128402 -2.025694726 0.2664532558
H -1.5728440814 -1.1741243953 -1.0818262794
H 2.392103244 0.7326365937 1.2091660544
H -1.6600369001 1.5229829227 -0.1959867956
H -0.5959988366 1.0483991045 -1.551399956
