11
0
C -1.6243954898 0.0222514174 -1.0655931963
N -1.1867783384 0.670928389 0.1518873551
C 0.0073551588 0.6724176129 0.4955007979
O 1.035780128 0.1340884599 -0.3014285246
C 2.0933638495 -0.4814761823 0.1886213076
O 1.9341078976 -0.6367344205 1.4951077791
H -2.0784835169 0.7766018495 -1.710025546
H -2.4079203395 -0.6913575852 -0.8073300153
H -0.8330251124 -0.4910543492 -1.6150672876
H 0.353954052 1.1497432354 1.4045702824
H 2.719573711 -1.0870874268 1.8174900477
