17
0
C -1.914431065 -0.5002382107 0.3739314321
C -1.0769543654 0.5989688967 -0.2317004244
C 0.2808874231 1.0107325462 0.2489291804
C 0.0964474822 0.3941119997 -1.1367499603
C 0.9159292228 -0.824444633 -0.7154686336
C 1.1115474848 -0.1938905493 0.689754975
O 2.4445513713 0.1068611107 1.0229501653
H -2.4175613327 -0.146305451 1.2760919473
H -1.3246584294 -1.3749744972 0.6492462065
H -2.6807087707 -0.8295259801 -0.3309322792
H -1.6650548686 1.4616868544 -0.5326203361
H 2.8082778651 0.6704547581 0.3354839243
H 0.509201319 2.0324390372 0.5272046015
H 0.1524623824 0.8774907239 -2.1033957159
H 1.876664762 -0.8847821308 -1.2277392327
H 0.4270453619 -1.7991426443 -0.7778844247
H 0.7236801576 -0.7612668306 1.5375075744
