13
0
C -1.3801414676 -0.2921794122 -0.1481673956
N -0.7041755117 0.5036556293 0.9766123278
C -0.3786061543 0.0630879279 -1.1860831583
C 0.7982816469 -0.5308310296 -0.9050753743
C 1.5272822492 0.304581115 0.0994677751
O 0.629946722 0.0587928118 1.2260767052
H -1.4274383162 -1.3637061853 0.0620676008
H -2.3812480175 0.1328684548 -0.2453182384
H -1.1466811989 0.2473767456 1.8547647554
H -0.3634312453 1.1283575832 -1.4081546102
H 0.776148337 -1.581388868 -0.6198972941
H 2.4897539535 -0.0633774532 0.4523234675
H 1.5691410029 1.3670806807 -0.1454605607
