19
0
C 3.177998902 1.1539820831 0.1402204131
C 1.9496948285 0.3276808767 -0.1661424582
O 1.1192450097 0.3249323435 0.9782876896
C -1.4915751047 -1.1586904285 -0.1141102778
C -2.2289089533 -0.6126377886 1.0716192643
C -2.8395224635 -0.5754236812 -0.2832800142
C -1.6959892514 -0.0009981275 -1.0412548798
H 3.7172345453 0.7311596283 0.9891606032
H 2.8953312759 2.1775909858 0.3912579169
H 3.8481805301 1.1803134059 -0.7211197033
H 2.2428843591 -0.6965573406 -0.4327204799
H 1.4180377801 0.750406615 -1.0295929151
H -1.1667895926 -2.1640858164 -0.3226592634
H -1.8823567896 0.3158470667 1.523564385
H -2.6298365153 -1.3348325421 1.7745620267
H -3.734480325 -1.0501422495 -0.6473060065
H -1.6551081485 -0.2101496149 -2.104913142
H -1.306761385 0.9748706326 -0.7539188168
H 0.3418102985 -0.2096180483 0.7890836583
