9
0
O -2.1927839535 -0.1852593168 -0.2500952056
C -0.9020266072 -0.0703687859 -0.1031933803
N -0.0334979167 -1.0044836394 0.2495619915
N 2.1620915323 0.0598403756 0.2766195931
N 0.9458851425 0.1132594441 0.1006697465
C 0.0096584846 1.0224847687 -0.2533227925
H -2.4492119327 -1.0960266946 -0.0566673143
H 2.3752183969 -0.9020035992 0.5459458503
H 0.0941308537 2.0606404475 -0.5082394889
