17
0
C 2.4235868727 -0.0347290964 0.9280366317
C 1.6515323944 -0.9890075 1.4202079099
C -1.3016401949 0.0681287152 -0.6823897356
C -0.3855561091 0.0409154489 -1.8734864736
C -2.2522486909 -0.8375102134 -0.4641821104
C -1.0944630448 1.1414758234 0.2499053028
C -0.8882298286 2.0461159537 1.0101396843
H 3.4724809915 -0.2045504379 0.7115593505
H 2.0312064157 0.9555216233 0.7241236736
H 0.6497486282 -0.0819382007 -1.5479858962
H 2.0346738649 -1.9820276758 1.6269903209
H 0.603583865 -0.8112430398 1.6344501659
H -0.4467495115 0.9797826235 -2.4271538877
H -0.6425575336 -0.7804132773 -2.541761783
H -2.4141054959 -1.6499522636 -1.1621823847
H -2.8874707953 -0.7892102554 0.4106049982
H -0.7159858278 2.8440587725 1.6930022335
