16
0
C 1.8554929356 0.5366775748 0.3006037941
C 0.3956674819 0.2560675863 -0.0392794756
C 0.277337588 -0.5998325978 -1.3118038644
C -2.48100685 0.0814354256 0.3675923659
O -1.5849400933 -0.3870365958 1.1928033945
C -0.298265374 -0.3677258093 1.1110368499
H 2.3644799412 1.0039156898 -0.5441264241
H 1.942731074 1.2015891722 1.1614947121
H 2.3837114257 -0.3915483668 0.5339323145
H -0.107739252 1.2191854118 -0.2343272759
H 0.6296675568 -0.0475692963 -2.1858217525
H 0.8826317458 -1.5029338492 -1.2123282963
H -3.4952043429 -0.0125129217 0.7131000356
H -2.1850606316 0.5712296022 -0.5457510859
H 0.1924037935 -0.8265617102 1.9570082106
H -0.7521629988 -0.9091713155 -1.5030095024
