9
0
N -0.5119197383 0.5461114948 -0.2413619344
C 0.9222377292 0.4234822665 -0.0251955797
C 1.1063173186 -0.9963635538 0.4579241628
N -0.1431074193 -1.5416108638 0.4822719988
C -1.0201963574 -0.6250577351 0.0766178082
H -1.0323898553 1.3432496258 -0.5613073891
H 1.2786375788 1.1286833952 0.7299222156
H 1.4859080856 0.5845802023 -0.947593703
H -2.0879703418 -0.8094878319 0.0046954209
