10
0
C -0.7159210999 -1.1300163546 0.2235919383
C -1.4189240685 0.1864098781 0.1490177272
N 3.2902891931 1.8074957686 -0.6081247073
C 2.6143498903 0.9026867502 -0.4219498358
O 0.4713212554 -1.2848489481 0.0945671853
H -1.3620888214 -2.0098931436 0.4110706504
H -2.1698850444 0.1471877177 -0.6442932568
H -0.7213064504 1.000715651 -0.0367115875
H -1.9574202551 0.3586638018 1.0844831888
H 1.9571724008 0.0649158788 -0.2452833028
