15
0
C -1.9353073815 0.039875946 -0.1249318532
C -0.5576632384 0.6514237183 0.0492140124
O -0.102840193 0.4959259648 1.383921878
C 1.193175144 -0.0919291486 1.4183163199
C 1.5056027553 -0.4403697123 -0.0049246897
C 0.5141006939 -0.008429563 -0.769517054
O 0.3268546276 -0.0581536615 -2.1041484386
H -1.9060012116 -1.0276852485 0.0997181068
H -2.6421745491 0.5202109501 0.5520331214
H -2.2838023775 0.1767618242 -1.1499694346
H -0.6032624258 1.7221237126 -0.1998496191
H 1.9112292443 0.6236608848 1.8398439464
H 1.1687230762 -0.9667182129 2.077907026
H 2.4077142001 -0.9437603785 -0.3240656693
H 1.0748956356 -0.4918050755 -2.5206126524
