8
0
N 1.4408762778 -0.4368362348 0.0648954165
C 2.5992830371 -0.5815231051 0.0006556413
C 0.0990590845 -0.1831613165 0.1354754334
C -0.4987396455 1.1422172442 0.0943405417
O -1.6845269373 1.3424521437 0.1609223512
N -1.4723528561 -2.0253855188 0.3396651751
N -0.7176954661 -1.213053885 0.2461182119
H 0.2477375057 1.9501726724 -0.0066887708
