16
0
C -2.1705067175 -0.3059433204 0.3944099068
C -0.8717987282 -0.3418415704 -0.3962916562
C 0.1648094732 0.626461006 0.1763042981
C 1.4676703571 0.6055292762 -0.559608722
C 2.6493303245 0.3978340589 -0.0011632708
O -0.3637268637 -1.661834341 -0.4851912445
H -2.8841286174 -1.016600817 -0.0229029419
H -1.9920844373 -0.5750365931 1.4395864974
H -2.6190105304 0.6898318642 0.3740499067
H -1.0784201495 -0.0597365563 -1.4338058936
H -0.2613931104 1.6352549953 0.1436031549
H 0.3323579178 0.393939767 1.2351608948
H 1.410961447 0.7702588734 -1.6335151623
H 3.5615393503 0.3954122151 -0.5849054309
H 2.7494603018 0.2235451149 1.0657547729
H 0.0629669827 -1.8858349729 0.3452748904
