15
0
C 0.7139703721 1.1180025752 0.517134826
C 1.1815508826 -0.1665738361 1.1719573408
C 0.7015321814 -1.1748212079 0.183781927
O -0.4675557543 -1.0254947125 1.0660800336
C -1.34182279 -0.0604442034 0.4481054188
C -0.3752909728 0.6711778583 -0.4664904738
C 0.2996894516 -0.5330292583 -1.1275064319
H 0.3994082856 1.8786749681 1.2329214618
H 1.5975773342 1.5047854388 -0.0061687519
H 1.1744830604 -0.2631660296 -1.7210592564
H 1.0637561529 -2.1968335832 0.2095000587
H -1.7697965664 0.5529820248 1.2405930127
H -2.1342613354 -0.5919073921 -0.0839532003
H -0.8129271164 1.4237871382 -1.1180528254
H -0.3711421855 -1.1445927802 -1.7335381397
