11
0
C 2.8831551921 0.9436332719 -0.4869293801
C 1.8495014255 0.3389424036 -0.4905237245
C 0.5780531942 -0.3810867633 -0.47737311
C -0.484325755 0.2709550081 0.3964304647
C -1.7549392546 -0.4350782941 0.4193283923
C -2.803349372 -1.0087077717 0.4434975334
O 0.4167286472 -1.388797665 -1.1060169988
H 3.8103122701 1.4685129733 -0.4953326443
H -0.0702971349 0.3584431002 1.4060136393
H -0.617233606 1.2978798808 0.0413513286
H -3.7337576066 -1.5253531439 0.4590764996
