16
0
C 2.7375170835 0.1950811441 0.5245823298
C 1.7495663963 -0.9560090984 0.3427286764
C 0.4965621119 -0.5060707927 -0.3444843952
O 0.0330726907 -1.0194188159 -1.3309478979
C -3.3187726419 1.0171328554 0.6711403921
C -2.9442340596 0.6076132564 -0.515061216
N -2.6680684491 0.2632463316 -1.6446991366
H 2.2808554821 1.0303758799 1.0598776855
H 3.6048851544 -0.1317235524 1.0975979078
H 3.091479591 0.5660023689 -0.4385536905
H 1.4468650405 -1.3370575817 1.3250294408
H 2.1823157697 -1.7834085053 -0.2203746116
H -0.0124924477 0.3652992003 0.1183480771
H -1.786139224 -0.2449226587 -1.7579482117
H -3.0361062706 1.9999747573 1.0188048446
H -3.925166227 0.3795092115 1.2974398056
