16
0
C 1.2198417831 0.1516776252 -1.4435258166
N 0.4937725669 0.498449463 -0.2420105625
C 1.1237844379 0.9413370742 0.8683106328
O 0.5687278734 1.2797694879 1.8911701379
C -0.9596261536 0.4565511993 -0.2629839926
C -1.5225442733 -0.7643680205 0.4494777394
O -1.0495634065 -1.9765797691 -0.1090366784
H 0.9438417704 -0.8476230711 -1.7842355452
H 1.0124842383 0.862446847 -2.2487687595
H 2.2904810749 0.1680034076 -1.2389283252
H 2.2231359878 0.9631426239 0.7561130349
H -1.3476559184 1.359470423 0.2145614173
H -1.2762146529 0.4513324955 -1.3076292185
H -1.2901818374 -0.7029904252 1.5163653897
H -2.6092668143 -0.7674408783 0.3411581877
H -0.1990666762 -2.1770074824 0.2837703591
