17
0
C -2.4049962411 -0.5479861862 -0.4737639513
C -1.3098978477 0.0945577462 -0.8486344655
O -0.5931841166 0.8749915869 -0.0088507705
C 0.6803422205 1.2797209046 -0.4718770013
C 1.7535290832 0.2211085353 -0.2793567503
C 1.7194647675 -0.7336271311 0.8687524942
C 1.4468081485 -1.2433885398 -0.2809096833
H -0.9716935626 0.0918731234 3.2451775053
H -2.9615924432 -1.1225317503 -1.1992925841
H -2.7649079287 -0.504132323 0.5457295708
H -0.9375539782 0.0530817583 -1.8711378371
H 0.6175718833 1.5663665603 -1.5297273047
H 0.93358592 2.1754708766 0.0990958892
H 2.7200178178 0.5626470733 -0.6588847705
H -0.8700170268 0.246955268 2.5219936844
H 1.8319289368 -0.854875021 1.9314001484
H 1.1651913672 -2.0977254817 -0.8705461739
