14
0
C 2.1150669415 0.0412382805 -0.0433229139
N 1.6355357237 -1.318037948 0.1133903622
C 1.0025839305 -0.474483245 -0.885165275
C -0.3645530946 0.0358112673 -0.6224353555
C -2.224062362 0.4609970221 0.7102271791
N -0.9033703387 -0.0843471406 0.5091033671
H 3.1050468257 0.1418373013 -0.4727293
H 1.8514470917 0.7732091851 0.7125714152
H 1.0073202176 -1.3668407257 0.9114782389
H 1.2102379019 -0.7375048558 -1.916876918
H -0.8750637238 0.5271084502 -1.4621918605
H -2.8965696019 -0.3351503086 1.0353783743
H -2.6411467622 0.9330116819 -0.1891103509
H -2.1893607495 1.1996180352 1.5136030372
