15
0
C -1.5152036117 -0.1647872554 -1.115531352
C -0.6208726714 -0.9093250782 -2.0502611669
O 0.4556699695 -1.3727443605 -1.7640816865
C 0.9062299246 1.2559545116 1.7799386538
O 0.0725638708 0.7735589118 2.7382553022
C 1.4671075875 0.4904746791 0.8524515004
O 1.2436798381 -0.8625608348 0.881238335
H -1.7009662195 0.8325286027 -1.522856982
H -2.4828443443 -0.6716193899 -1.0715474506
H -1.0830282357 -0.082579673 -0.1202798015
H -0.9989909276 -1.0313890362 -3.0837313431
H 1.1030027329 -1.1793824832 -0.0263864606
H 1.0843295905 2.3193187216 1.8493942165
H 0.0342053545 -0.182837213 2.6207391052
H 2.1374921416 0.8872518977 0.0999301301
