8
0
C 0.4816851177 0.8045536387 -0.4160157057
C 0.1332333089 -0.4135612052 -0.1027654081
C -0.1857381759 -1.6282700128 0.2117235959
C -1.170294743 2.6265918208 -1.083964634
N -0.4368117732 1.7745702335 -0.7746557065
H 1.5175024945 1.1208388819 -0.4106105451
H -0.4082183602 -1.8979323691 1.2380087182
H -0.2480048689 -2.4027929877 -0.5442813147
