14
0
C 1.1553337281 -0.34576808 -0.4804256823
C -0.1584657925 -1.1208513352 -0.6035745435
C -1.30851131 -0.2417727337 -0.274615405
C -0.9484870216 -1.3850420069 0.6225410199
N 0.1281647145 0.8659818924 1.5176439071
C 0.7644484113 0.9392770198 0.2158554457
C -0.7131116702 1.0158519564 0.3201455361
H 1.5458799724 -0.1272098119 -1.4766099575
H 1.9164013875 -0.9063357276 0.0669629348
H -0.2140298121 -1.9342565602 -1.3220521873
H -2.2661235486 -0.199798752 -0.7760921974
H 0.0987753199 -0.0694215805 1.9177576275
H 1.3724885629 1.8214613495 0.0504556268
H -1.2729829417 1.9399883699 0.2599588751
