14
0
O -0.8792884737 0.5128540533 0.1214003757
C -1.789160486 0.9096539302 1.0109961583
N -2.0722928151 0.2587363662 2.0519915173
C -0.2020791127 -0.7066287652 0.4106577514
C 0.8023756446 -0.9522745591 -0.7015362475
C 1.8828193162 0.0299633646 -0.7353737448
C 2.7681118609 0.8352450409 -0.7470145178
H -2.2273561974 1.8561201423 0.689520473
H -2.787590953 0.7367526515 2.5869215935
H -0.928690804 -1.5206897755 0.4623898865
H 0.2867373838 -0.6306422343 1.3838316227
H 1.2286804769 -1.9493767984 -0.5638388605
H 0.2835278527 -0.9567681342 -1.6632584508
H 3.5544483067 1.5520967175 -0.7614365569
