19
0
C -2.1440225783 -0.4526776387 -0.2215672013
C -1.1517791528 0.6099963657 0.2387178488
C -0.0188199324 -0.0149265507 1.0805052625
C 1.1231414836 -0.1684524076 0.106797769
C 2.3343701071 -0.9722083742 0.4429893361
C 0.8928418389 0.5233504017 -1.0030252412
C -0.4224820824 1.2501378442 -0.9651631044
H -1.6338082491 -1.2280573173 -0.8003153334
H -2.6303664953 -0.9342605436 0.6298550402
H -2.9233783411 -0.0203222727 -0.8530275762
H -1.6912326459 1.3667648042 0.8124670019
H 0.2823980226 0.6348255619 1.9105812173
H -0.317813473 -0.9691887118 1.5268780313
H -0.2647125527 2.3246764205 -0.8190059301
H 2.0684417203 -2.0140821316 0.6431330388
H 2.8143364194 -0.5889518521 1.3481971565
H 3.065488322 -0.9540652137 -0.3657146199
H 1.5825943598 0.593181485 -1.8367901557
H -0.9952827709 1.144681131 -1.8914375401
