18
0
C -0.6105010635 -2.153870825 -0.6935948976
C -0.427308617 -0.6722597304 -0.6796441748
C -1.2683841637 2.3958586572 0.3806949978
N 0.5923979445 -0.0733692126 -0.0717104401
C 1.663708133 -0.9052616337 0.4718271379
C 0.7403535614 1.2436202991 0.1324179961
O -0.1700338451 2.06787951 -0.4578342113
H -0.8171145913 -2.5831037391 0.2962351295
H -1.4696461644 -2.3908805039 -1.3206145135
H 0.2404588497 -2.7038901907 -1.1100476923
H -1.1663073962 -0.0151281549 -1.1072869924
H -1.9828726733 2.9483789105 -0.2295537395
H -1.7495993052 1.4951706577 0.775400505
H -0.9427271091 3.0208557776 1.2165250119
H 1.2566041234 -1.6046797424 1.1997617216
H 2.1373765105 -1.4614743594 -0.3356109471
H 2.3929265333 -0.2674680071 0.9622472173
H 1.7330752732 1.6254242872 0.3205828916
