13
0
O -1.318585043 -1.4221743644 0.6573256811
C -0.2182486281 -1.4595652126 1.3845064945
C 0.6308874001 -0.8609734207 0.2531596207
C 1.0357390627 0.6027607948 0.4743823294
C -0.0809760888 1.3718915877 -0.1791741856
C -1.0090029334 0.5989501579 -0.7335643524
C -0.6799323289 -0.8402597789 -0.5421529291
H 1.1145837314 0.8420070794 1.5406678812
H 1.4374616546 -1.5108715279 -0.0810330048
H 2.0030953641 0.8396393478 0.0261156281
H -0.1138268085 2.4552433507 -0.1711280068
H -1.9006716936 0.9476411152 -1.2371036435
H -0.8379686887 -1.4977361289 -1.3965615129
