16
0
C -1.4943307408 0.4714289635 1.8096241563
O -0.7953702357 -0.4490389957 1.0000451755
C 0.3244770962 0.4536424943 -1.6434990427
C 1.2770284501 -0.7224444869 -1.4864834635
N 1.135214709 -1.0783768624 -0.0728209629
C 0.4555096284 0.015321935 0.5788186015
O 0.3641865995 1.0541689146 -0.3553239355
H -1.7418666563 1.3804938367 1.254688274
H -2.4120710608 -0.0175697249 2.1310145573
H -0.9064459885 0.7439374198 2.6943086937
H 0.6425626636 1.1980308214 -2.3718003933
H -0.6933357868 0.1239663045 -1.8797575989
H 2.3059252606 -0.4203254455 -1.6975978327
H 1.0277776001 -1.5633849279 -2.133725631
H 0.5884532532 -1.9174854381 0.0549436271
H 0.9994862083 0.4217761914 1.4405887753
