18
0
C -1.7957456056 0.7955009856 0.4483074596
C -1.4657067991 -0.2200025638 -0.6446674253
C -0.6878935868 -1.392042813 -0.1299629661
C 0.4682837099 -1.8247596847 -0.6160427141
O 1.6513764349 0.6260520762 1.3237063641
C 2.1280870355 1.3640749276 0.2223770127
H -2.3847670758 0.3347788398 1.2447030462
H -2.3752994398 1.6268638193 0.0442214424
H -0.8872148662 1.1973487033 0.9005750715
H -0.910485316 0.2590423541 -1.456019139
H -2.3986465619 -0.5912508084 -1.0827883163
H 1.2417264523 -0.1787225132 0.99031193
H -1.1294503812 -1.9171570845 0.7157689984
H 0.9697403794 -2.6902129224 -0.1996659309
H 0.9445572412 -1.3379958909 -1.4618282864
H 1.3300488583 1.6106338849 -0.4892914167
H 2.9239542538 0.8368820471 -0.3165674773
H 2.5381852671 2.296869643 0.608980347
