13
0
O -0.1660562883 0.4529819467 2.2284620045
C 1.1331576162 0.4134003715 2.2794669929
C -0.7858629198 -1.2599662825 -1.1938901366
C -1.3518183782 0.0134264279 -0.7703062821
C -1.8142404303 1.0647698047 -0.4253154183
C 1.7767324889 0.4678896223 1.0037833199
C 2.48131519 0.5096200401 0.0256607342
H -0.5456879318 0.5193539421 1.3251236937
H -1.2678677414 -2.0883381173 -0.6738231906
H -0.9269853219 -1.3971857486 -2.2664041023
H 0.2833951619 -1.2874709511 -0.9782881928
H -2.2377920204 1.9989173383 -0.1378953788
H 3.108146575 0.5498126057 -0.8345840436
