14
0
C -1.0316899438 -1.1588654313 0.057132312
C -0.1306323227 0.0333728021 -0.0829524009
C 1.3181002883 -0.299847784 -0.292124964
O 2.0852044638 0.8668836174 -0.4955210304
C -0.5362499542 1.2975924571 -0.0456004866
O -1.8083694077 1.7461528945 0.1223903406
H -2.0405330204 -0.9030905259 0.3875272762
H -0.6356938222 -1.8638991768 0.7936202023
H -1.1280630027 -1.7006029416 -0.888596872
H -2.4093121323 1.0006282004 0.1899550005
H 1.6852833882 -0.8558835423 0.5840413946
H 1.4045411821 -0.9755476591 -1.1571385954
H 3.0065991972 0.618204731 -0.5675780539
H 0.1620090866 2.1151973587 -0.1561101233
