14
0
C -0.9785749108 -0.9423912712 -0.0477567429
C -1.1609619935 0.5502374559 -0.4176705357
O -0.6527542281 1.3261051514 0.7029912207
C 0.6236933033 1.1974148751 0.0167933186
C 1.2586831443 -0.1307545859 0.4960943718
N 0.4274855333 -1.2776978101 0.1479626261
C -0.0203846439 0.9279560124 -1.3003092998
H -1.5441815333 -1.0753696246 0.8788504274
H -1.4049418746 -1.5956892312 -0.8092694937
H -2.1890314076 0.7871614774 -0.6982818499
H 1.2928142925 2.0499084183 0.1480578
H 2.256646905 -0.2652459931 0.078160864
H 1.34858466 -0.0279377781 1.5812636725
H 0.7833117534 -1.6873680964 -0.7029243789
