14
0
C 1.6671403889 1.1666337591 -0.3280180693
C 0.0980291345 -0.5388814132 0.6491859344
C -0.2366918779 -1.7842154375 0.3476717175
C -3.5407183747 -0.539976539 -0.0776109952
O -3.3959821817 0.5681710287 0.0424318855
C 0.2591868279 0.5748073309 -0.3392262081
H 2.4084324822 0.4116065327 -0.5965708222
H 1.7531304171 1.9936144391 -1.0348855054
H 1.9263950323 1.5468813105 0.6628643982
H 0.2860785697 -0.2818120892 1.6904440275
H -0.3363397933 -2.5476919132 1.1096171652
H -0.4289151678 -2.0849767272 -0.6774918706
H -0.4639342609 1.3636160784 -0.1050159836
H 0.0113118036 0.2113816401 -1.3403096738
