11
0
O 0.1115483296 1.6057068914 0.0481063727
C -0.2294146183 0.3494346489 0.6196433828
C -1.1355488416 1.0243166762 -0.3077131147
N 0.5195196837 -1.9174629802 0.7250987624
C 0.5993998433 -0.8034632267 0.1485539759
O 1.3753812658 -0.5343457625 -0.9185259688
H 1.3525817199 0.4233360381 -1.0643623286
H -0.4505970114 0.3498679958 1.6804350963
H -2.0096500748 1.5322780729 0.0848279957
H -1.2088102183 0.6719485088 -1.3322111634
H 1.1240409222 -2.6040398627 0.2802029897
