12
0
C -1.3318332596 -0.221363905 0.2409514166
C -0.1246859264 -0.6700953698 -0.5383695337
C 1.6151661945 1.1637514928 0.3643861916
O 1.0692254717 -0.3708111892 0.2303340408
H -1.3927655034 -0.7448922876 1.1953007266
H -2.2339698297 -0.4344616144 -0.3337738196
H -1.2871720437 0.8512076059 0.4288800959
H -0.1305311666 -1.7499093087 -0.7029910606
H -0.0462155167 -0.1565785477 -1.4999488738
H 1.0966612311 1.6183100868 -0.4978833016
H 1.0408947298 1.4715002682 1.2488727952
H 1.8423056188 -0.7934622311 -0.1498106773
