12
0
O 2.1517788727 1.0636266549 -0.1868896321
C 1.2317255536 0.4147465001 -0.5989018568
C 0.5147360224 -0.6721280533 0.1646521735
C -0.9668190499 -0.4425205071 0.2552521442
C -1.6172032786 -0.275106219 1.3947842607
O 0.7259655497 0.5801500366 -1.8353088267
H 1.2312845647 1.2886229051 -2.2533568049
H 0.9683403404 -0.7308157077 1.1522079031
H 0.7085335729 -1.6128414364 -0.3612686801
H -1.5055313782 -0.4158236115 -0.6867641964
H -2.6884079444 -0.1169831398 1.4131695696
H -1.1039188252 -0.290275422 2.350335946
