13
0
C 1.8389027482 0.0282841836 0.7292256098
O 0.6794722338 -0.6463192068 0.3042339159
C -0.1663118383 0.1868362193 -0.4564570716
C -1.5030579515 -0.5794614868 -0.7576618152
C -1.0626061572 1.131777269 0.1488292993
H 1.5968055144 0.8637230999 1.3977615961
H 2.41113299 0.4163284323 -0.1229997112
H 2.4533825891 -0.6896088151 1.2700298181
H 0.3242797097 0.4874126876 -1.3855512897
H -1.7874764006 -0.4834854392 -1.7988457394
H -1.3106819465 -1.6062283702 -0.4523954133
H -2.3556390033 -0.2157247716 -0.1548172977
H -1.1470344879 0.836138198 1.2114420988
