15
0
C -1.4977663579 0.4593053443 1.9928268506
C -0.5018145122 -0.0726399742 1.0199943567
C 0.72490906 -1.0629748819 -2.0427480503
N 0.416275588 0.7238637859 0.4876488545
C 1.3422535893 0.5156095078 -0.4428770648
O 1.5051609695 -0.7572987768 -0.8945883385
H -2.5206013676 0.4651256038 1.598025404
H -1.2610632307 1.4904086679 2.2739959146
H -1.5175796245 -0.1235056518 2.9186372373
H -0.5015713231 -1.1009053664 0.6942798887
H 0.8576241697 -2.125771831 -2.2443732463
H 1.0630575162 -0.4829080099 -2.9059222141
H -0.335960341 -0.8574739925 -1.8678104223
H 0.4076723676 1.6772150692 0.8285855361
H 2.125252497 1.2457025057 -0.5793877062
