11
0
N 2.1402601168 -0.0657467625 0.026301468
C 0.8234461692 -0.1511100805 -0.0004386791
C 0.2064643223 -1.4796013719 -0.0757067958
N -1.113278004 -1.4348007803 -0.0837869943
C -1.7845604965 -0.2290929998 -0.024353702
C -1.1746651942 0.9559464005 0.0292776935
O 0.1952094807 1.002313002 0.0373138227
H 2.631925742 0.8088305739 0.0727450283
H 2.6273038043 -0.9466493825 -0.0094972726
H -2.8677020248 -0.2685436134 -0.0281020639
H -1.6170209157 1.9383810142 0.0670824952
