14
0
C 2.0189724058 -0.2060482806 -0.1802474569
C 0.7838556968 0.1571991952 -0.4826347278
C -0.2904069663 -0.7848795666 -0.9405083086
C -1.5224900626 -0.7831377877 -0.0762097571
O -1.3408726464 -1.1044506985 1.3372902998
C -1.6800672571 0.1103282753 1.1123808711
H -0.1786517564 3.3389215271 1.6494582881
H 2.7582572793 0.5182183765 0.1381499186
H 2.3370647704 -1.2418404965 -0.2409674699
H 0.4988636776 1.2033820044 -0.4009505328
H 0.1061705434 -1.8018615837 -1.0198973447
H -0.6217303157 -0.4978987009 -1.944552096
H -2.4177527312 -1.2410153689 -0.4825418153
H -0.5671716376 2.7017651047 1.6760051314
