11
0
C 1.217202479 -0.4412909159 -0.1162878394
N 0.2307945771 0.3672579904 0.6542811895
C -0.9988877595 0.8338577633 -0.055375136
C -1.7867546684 -0.2703201587 -0.4175880092
N -2.4381908937 -1.205824678 -0.6361707108
H 0.6978821592 -1.3171085744 -0.4988846911
H 2.0512988793 -0.7368589275 0.5221593616
H 1.5698255647 0.162887924 -0.94878935
H -0.0847122696 -0.1720736639 1.4576183205
H 0.6855003369 1.1894805977 1.0409018952
H -0.732015405 1.522655643 -0.8485990303
