16
0
C 0.6464276928 0.8944740401 0.3120570497
C 0.4816789515 -0.5550711941 0.7361256324
C 1.5340703588 -1.4827757749 0.119436198
C -0.8851641197 -1.1036275001 0.4293193773
O -1.7753046665 -0.5063046525 -0.1186607005
C -2.3113787537 2.2323653622 -1.4620315361
N -2.4244488527 3.2646304065 -1.9434973194
H 0.5584122887 0.9972740519 -0.7713534579
H 1.6287420718 1.2664644589 0.6057172415
H -0.1085226962 1.5341347789 0.7701067147
H 2.5336107838 -1.1796143483 0.4317188626
H 1.3884478869 -2.5212015539 0.4243685235
H 1.4950109032 -1.440154131 -0.9713240952
H -1.0474111594 -2.1555597286 0.7424010464
H 0.5729580231 -0.6344432345 1.8286400575
H -2.1868187123 1.2639860193 -1.0030425943
