19
0
C 2.5730095676 0.8486255491 -1.5682045501
O 1.1662890301 0.967923725 -1.4571908584
C 0.1904124577 -1.2511539246 0.7035608419
C -0.9693047163 -0.6201131229 0.5562510035
C -2.2254119985 -1.3105883216 0.1141701181
C -1.1297672054 0.8544702226 0.8467220577
O 0.0552305412 1.5466549254 1.1222476676
H 2.8573112547 0.2309258102 -2.4252929899
H 2.9714464473 1.8513365224 -1.7156695883
H 3.018261909 0.4265078702 -0.6612321937
H 0.2820426337 -2.3134380653 0.5084376359
H 1.0643219305 -0.7264339461 1.0711710818
H 0.7984880998 0.0986865711 -1.2609839132
H -2.6062193131 -0.8760060994 -0.8141920147
H -3.0124264335 -1.1917595889 0.8643317321
H -2.0630478532 -2.3760541095 -0.0450660159
H -1.6719887424 1.3142410535 0.0070934475
H -1.7766804531 0.9612541168 1.7240415524
H 0.5473958437 1.6123558121 0.2908709855
