12
0
O 1.3826222112 1.0510368021 -1.5990879499
C 1.3927063272 1.1553178328 -0.2010928669
C -2.6414770451 -1.1235775685 0.0138095532
C -1.6090765187 -0.5369965512 0.5490744351
N -0.6935455651 0.0185765919 1.122653104
C 0.5640534423 0.2829450369 0.6545317683
C 1.8420807679 0.0507151336 0.6833596829
H 1.3182768123 0.1216072806 -1.8338278971
H 1.565581301 2.1986965567 0.0512731603
H -3.3347858404 -0.5526615151 -0.5871849447
H -2.8024406749 -2.1817698246 0.1625054779
H 2.6679417824 -0.5347287754 1.0497074768
