13
0
O 1.73289501 1.3227111709 -1.747707709
C 1.5204668692 1.0479822934 -0.6000063258
C 0.8882301324 -0.2575987652 -0.1570749082
O 1.1330317622 -0.4497324162 1.2108024171
C -1.5948821273 -1.0156789071 0.2668004762
C -1.6123981493 0.2535754009 0.4981378128
C -0.6021423171 -0.2095546456 -0.5039883262
H 1.753144118 1.750115628 0.2277008476
H 1.3545272516 -1.0622062282 -0.7388289205
H -2.0145926928 -1.9926738507 0.4337127287
H -2.0585597546 1.0959765557 0.997590883
H 0.2967331795 -0.6170764272 1.6562519863
H -0.7655302815 -0.0170638087 -1.5633249619
