16
0
N 1.7000408253 0.6028898027 1.4332258369
C 1.3682150387 -0.7003070339 1.2944052265
O 1.6462545769 -1.559155103 2.0910263757
C 0.5842480102 -1.0277270384 -0.0130585145
C -0.7285851198 -0.372601307 0.112704963
C -0.8347152943 0.978443742 -0.4064196682
O 0.3460578316 1.6230312561 -0.8949591871
H 2.2711153034 0.8572514232 2.2193699756
H 1.5334606667 1.2595329993 0.6854838343
H 1.1972357868 -0.6726692584 -0.8507368685
H 0.4965043136 -2.1109443146 -0.0165446691
H -2.7914919024 -2.3264585629 -1.7474648381
H -2.5165830288 -2.0201668335 -1.1230207724
H -1.5703555162 0.8230768281 -1.2178238731
H -1.3516516963 1.6019825673 0.3343247191
H 0.1088222046 2.4565858327 -1.3050285399
