13
0
O 1.4377118893 -1.1018458766 0.3439315636
C 1.6024312933 0.3187051586 0.1509571361
C 0.1348436695 0.4376349824 -0.314563897
C 0.0999897676 -1.0361970267 0.043636455
C -0.8064578852 -1.9904806428 0.0962808232
C -0.7458713755 1.3393803523 0.4045872988
C -1.4662797968 2.0863541706 1.0006402171
H -0.5445574215 -2.9920612935 0.4082359718
H 1.8230279418 0.8237690752 1.0914898899
H 2.3642562215 0.5360401685 -0.5972848404
H 0.0475793082 0.6001787133 -1.389987057
H -1.8305475166 -1.7671437805 -0.1656732008
H -2.1083710957 2.745526999 1.5354376398
