13
0
O 0.7163575001 -2.3165510023 -0.9766871852
C 0.3453661371 -1.2644962116 -0.5388755484
C -1.1092243664 -0.82612839 -0.3867166231
C -0.9964537412 0.5450193562 0.2146218345
C 0.2754842219 0.8973770785 0.3942684188
O 0.7820069515 2.0395067602 0.9039135042
C 1.2529174745 -0.1440130286 -0.0420184699
H -1.6410212533 -1.5482205447 0.2401105205
H -1.5950666878 -0.8451121143 -1.3671809676
H 0.0641443484 2.6296612699 1.1477622912
H -1.8505639921 1.1611894218 0.4669811251
H 1.891852788 -0.4964668944 0.7716079475
H 1.9114196194 0.1996862993 -0.8439618474
