16
0
C 2.4602589506 -0.103418591 0.1239296073
C 0.9809927991 -0.0358007561 0.2339319604
C 0.1037793533 0.863819887 0.6800165292
C -2.1307612337 0.526080035 -0.5985510087
C -1.111217725 0.0036449481 0.3968917245
C -0.0847596867 -1.0447106351 -0.1376027877
H 2.766635458 -0.2396326836 -0.9167387939
H 2.9282980921 0.8043316364 0.5063434827
H 2.8511430395 -0.9565620693 0.6851488569
H 0.2092767776 1.8569081552 1.103573637
H -2.6770267616 1.3797505677 -0.1906936062
H -2.861259844 -0.2451788285 -0.8553013059
H -1.6169896662 -0.3427702815 1.3038579611
H -1.6418597967 0.8524335367 -1.5201141031
H -0.1780223574 -1.2561303012 -1.2066072601
H -0.055105399 -1.99281962 0.4061791065
