15
0
C 2.0656830665 0.056116477 0.0212681705
C 0.8894522711 0.9638556044 -0.0256578092
N 0.0262590077 1.0059981661 0.89733084
C -1.4321168926 -1.9529334293 -0.5306925445
C -1.0153317101 1.9318322083 0.8084375418
O -0.8731525356 3.116409202 0.6772528208
H 2.0622741281 -0.6065759905 -0.847661632
H 2.0612705614 -0.5348119975 0.9348274128
H 2.9853638049 0.6444186729 -0.0323559744
H -0.5410487605 -2.0278613709 -1.1531169849
H 0.7893573733 1.6064850632 -0.9085268511
H -1.1448433427 -1.6645756599 0.4791572707
H -2.1012551739 -1.200371879 -0.9463181799
H -1.9400069642 -2.9157913166 -0.5103389287
H -2.0061838336 1.4635802503 0.9348588483
