11
0
N -1.9653796844 0.2157769026 -0.1562463127
C -0.5815942275 -0.0617397629 -0.0746366641
C 0.2126938303 -1.158592793 -0.2303210979
C 1.5475826211 -0.5752078004 0.0405488995
N 1.4492896226 0.8616103649 0.3414974841
N 0.2182064234 1.0509182278 0.2552839643
H -2.4845992381 -0.3762325836 0.4769712362
H -2.3132000902 0.0352517697 -1.0879333836
H 2.0499472643 -1.0408362847 0.8971753736
H 2.24912484 -0.6818184711 -0.7948760071
H -0.1621013615 1.979609431 0.4227155076
