14
0
C 2.3057611743 -0.2008578389 0.0398721482
N 0.9144631647 0.1912423823 -0.0435746713
C 0.3833211589 1.4319311057 -0.1845550201
C -1.0043346033 1.3435145301 -0.1546995074
C -2.373938702 -0.7427927545 0.0841328987
N -1.1254362672 -0.0080600609 0.0133950831
N -0.0093927114 -0.7144819267 0.0819361586
H 2.3924777097 -1.2378828638 -0.2737117365
H 2.6639257747 -0.0977335792 1.0638035404
H 2.8933736668 0.4349130719 -0.6187683151
H 1.0304861006 2.2867282208 -0.2984507405
H -2.3223919935 -1.4799138893 0.8837024636
H -3.1591836037 -0.0198738034 0.2809108167
H -2.5675188685 -1.2470945942 -0.862700118
