17
0
C 2.1664017464 -0.4320446793 -0.7656516014
O 1.5492905699 -0.0878784878 0.4558295655
C 0.237703851 0.3185557491 0.2913835581
C -0.6843206323 0.076093304 1.4431168658
O -1.703731148 0.9893925277 1.7128405736
C -0.8669331622 -0.6997424273 0.170602035
O -1.9702768546 -0.4164435069 -0.6212800754
H 3.1815383371 -0.7500443564 -0.533423332
H 2.2049425473 0.4276560754 -1.4447332664
H 1.6336282142 -1.2477989837 -1.2663734243
H -0.2417638519 0.3196149476 -3.3194405969
H 0.0825917423 1.2377532605 -0.2755048859
H -0.2743317768 -0.446130339 2.3020991421
H -1.3172459968 1.8266694489 1.9756942757
H -0.5904034238 -1.748245726 0.1801659101
H -0.7123921071 0.1591266409 -2.7620446963
H -2.5321160548 0.1873255525 -0.1229770476
