18
0
C -0.7634606309 1.4164732618 -2.0709354546
C -0.1998367756 0.451800353 -1.3605341341
C -2.436328844 -1.3961805275 0.9609875226
C 0.7853358459 0.6619038156 -0.2532401275
C 2.1162751485 -0.0117602854 -0.5367773219
O 2.9490555655 0.1705848099 0.5926167996
H -0.5395913886 2.4617606293 -1.8836021048
H -2.364528215 -0.4016442571 0.5227972012
H -1.474371746 1.1990959964 -2.8587684734
H -0.4576661693 -0.5824234333 -1.5818912964
H -2.8862322036 -1.3291853 1.9503282488
H -1.4408020251 -1.830789121 1.0452444509
H -3.053990895 -2.0279849378 0.324176454
H 0.9510692097 1.7285089731 -0.0852272561
H 0.3895488128 0.2446966455 0.6785617867
H 2.566719179 0.4291352178 -1.4352575384
H 1.9544394177 -1.0803746741 -0.734756151
H 3.8006437141 -0.2316081665 0.4183283944
