15
0
C 1.9398678692 -0.6494599553 0.9731755455
C 0.8008017224 -0.6149102055 0.3197725173
C 0.0421431553 -0.9025598759 -0.9050080317
C -0.6088267744 -0.2383319132 0.3049620935
O -1.4701011283 -0.9917759023 1.1066983427
C -0.994923569 1.2290028682 0.239338861
O -0.1084592599 2.0163558362 -0.5179541374
H 2.8358566392 -1.0643427859 0.5257553557
H 2.0112815133 -0.2813103346 1.9904655546
H 0.7620231126 1.9607942866 -0.1146230488
H 0.2136622839 -0.290004921 -1.783347758
H -0.2210505909 -1.9380339966 -1.0919599357
H -2.3008237048 -1.1011320973 0.6371341732
H -1.9732638589 1.3226201094 -0.2408778232
H -1.0917944094 1.5974648871 1.2683662909
