17
0
C -1.7423427627 0.6181893723 -0.0771573026
C -1.0205478838 -0.7016032227 -0.1773767353
C 0.330445282 -0.8963827292 -0.7204086384
C 1.1959889823 0.3395861057 -0.7888392383
C 1.3284718433 0.788929714 0.6901938177
C 0.6651431705 -0.1655960082 1.6189835259
C 0.0951395407 -1.1861967567 0.7903498892
H -2.2705085956 0.8095348186 -1.0141306152
H -2.4800485838 0.5926212272 0.7254810456
H -1.0803589983 1.4622578295 0.1069204753
H -1.6992008687 -1.5276317493 -0.3617115097
H 0.5132743026 -1.7245764534 -1.3932442841
H 0.7462923449 1.1160966052 -1.4123554368
H 2.1690961648 0.1056555173 -1.2227995417
H 1.0433223169 1.823277377 0.9069993459
H 2.3778950813 0.7396446343 1.0117026882
H -0.0760163363 -2.1833072814 1.1756045143
