14
0
C 1.8584457653 0.1009348696 0.2855789128
N 1.8684340864 -1.2894459304 -0.1487881761
C 0.9395752731 -0.3427448726 -0.790140597
C -0.5115266474 -0.4273435361 -0.5551733057
C -2.4131507073 0.7143570461 0.4438119716
N -1.1403029953 0.5075850633 0.1478216856
H 2.7436696711 0.6725734523 0.0336891581
H 1.4440728246 0.3255036194 1.264247207
H 1.3462673832 -1.8494488314 0.5164947789
H 1.253082468 -0.123485215 -1.808688169
H -1.1227395775 -1.1683897313 -1.0512689166
H -3.1593050704 0.0315263855 0.07136681
H -2.6591020968 1.5543325682 1.0689412188
H -0.5070293773 1.1995871121 0.5325834216
