13
0
O 1.999870275 1.1287435639 -0.0246794492
C 1.046200348 1.2616198094 -0.7402144876
C 0.3029727724 -1.5199500739 0.3916193217
C -0.7152897202 -0.4460449051 0.1406614477
N -0.6992953748 0.7060683375 1.0121339693
C -0.3584473932 0.9119340016 -0.3906903517
H 1.2412159907 -1.086276943 0.733439326
H 1.1667659305 1.6494753574 -1.7740082846
H -0.0614853273 -2.2000810891 1.1638631692
H 0.4861608031 -2.101460712 -0.5141500022
H -1.687936036 -0.8017249839 -0.1918665533
H -1.630301226 1.0554051361 1.1999468484
H -1.0963270423 1.3739045014 -1.0407669537
