16
0
C 2.4812760895 -0.1705705134 0.2731696175
C 1.019952634 0.0429595407 0.1051737773
C 0.3710474828 1.2349020577 0.0324925532
C -1.0478713104 1.1109288729 -0.1326993582
C -1.2817585815 -0.3641964541 -0.1772534829
C 0.0582619044 -1.090317157 -0.0101680338
H 2.8789689932 -0.7253606364 -0.5809036116
H 3.0218308947 0.7704203083 0.3625155941
H 2.6766703448 -0.7795548646 1.1594798885
H 0.8845912758 2.1886988359 0.0963787156
H -3.7433225983 1.4943360636 -0.4565956967
H -4.4710924145 1.3528343814 -0.5676013166
H -2.0188850534 -0.6244149682 0.5898287118
H -1.785127015 -0.5976897337 -1.1221981928
H 0.3187804981 -1.7379026068 -0.8535908965
H 0.1008828557 -1.7229211263 0.8825367315
