13
0
N -1.7344131541 -0.1377188792 0.1671531302
C -0.647779704 0.5430926743 -0.5517207541
C 0.5974010679 0.397495747 0.2747521327
N 0.7755993703 -1.0642501193 0.5407277411
C 1.7912225619 0.996352386 -0.1537128682
N 2.7974276675 1.48557896 -0.4605216615
H -1.9865496801 0.3976116297 0.988956555
H -2.5580006551 -0.2425737675 -0.4095238479
H -0.8275805551 1.6069057911 -0.7323747626
H -0.5898317903 0.0598184607 -1.5447892835
H 1.3332870281 -1.2276052706 1.3720805156
H -0.195704056 -1.3777182227 0.7027087241
H 1.1727868991 -1.6132963894 -0.2308956209
