15
0
C 1.7427319666 0.5906280218 0.3446658765
O 0.4064819706 0.9413778407 0.0816656907
C -0.7338826449 -1.5889252317 -0.3637155221
O -0.0713282643 -1.8111220239 -1.2894942103
C -1.4952052047 -1.374565762 0.6909124256
C 0.2547128012 1.5792276709 -1.1616023921
O -2.3189864522 -2.388390802 1.1559759234
H 1.7666583037 0.0968824739 1.3152375181
H 2.3861179618 1.4788430928 0.3763538294
H 2.1288643698 -0.0987260427 -0.416702112
H -1.3885417351 -0.4423750609 1.2272270202
H 0.8328908006 2.5109106517 -1.2020913145
H -0.8025959701 1.8106279641 -1.2850059779
H 0.5758805359 0.9274920653 -1.9838906896
H -3.2230424388 -2.1855478579 0.9056589346
