9
0
N -2.7293127986 -1.1802582179 0.2764887056
C -1.7063594522 -0.4906347612 0.2558363868
O 1.7629868624 -0.3276444354 -0.7380265897
C 1.4996562827 0.7788037089 0.0299722973
O 1.969819852 1.0514113299 -1.2250057643
C -0.741762191 0.3438777438 0.272236411
N 0.1647584324 1.1836923268 0.3102882827
H -2.5524720903 -2.1634556916 0.06426763
H 2.1721631026 0.9696479967 0.8652706407
