16
0
C -0.6600926332 -1.1277321228 0.5631242163
C -1.2224669999 0.0939587642 -0.1629700197
C -0.4664778479 1.3930272835 0.0394271863
O 0.6522546659 1.4820629029 -0.8779378279
C 1.8172960151 1.6981895966 -0.3722151362
C 0.743860345 -1.5478823176 0.1433374236
H -1.3501317373 -1.9601010274 0.3974504051
H -0.6739158924 -0.9348897062 1.6409290518
H -1.2909768809 -0.0981048462 -1.2386496818
H -2.2472053695 0.2627838443 0.1803946102
H -0.0644505978 1.5052092616 1.0486723987
H -1.0988542021 2.2488337831 -0.2007043662
H 1.4916286075 -0.8106569268 0.4411941925
H 2.471658448 1.7319593784 -1.2737831018
H 1.0164719146 -2.4969876047 0.6079154185
H 0.8127541647 -1.6742982631 -0.9400737693
