11
0
N 1.8857196853 0.0338640101 -0.0742363161
C 2.9398064071 -0.391775675 -0.3281504241
C 0.6025598326 0.5654826487 0.2250398262
C -0.5220466698 0.1434822411 -0.7300290227
C -1.105264867 -0.5512890089 0.5056057137
O -0.0103457428 -0.0849713311 1.3214301773
H 0.7266964386 1.6365283864 0.3994216868
H -1.1053525094 0.9705567421 -1.1266497941
H -0.2022523346 -0.5108240088 -1.5362106014
H -2.059536715 -0.1644085048 0.86624478
H -1.139237525 -1.6417204999 0.4680539743
