17
0
C 1.5860415384 -0.7463703208 1.1918385702
C 0.921530845 1.2707837946 -0.4150061404
C 1.1063560727 -0.2072946227 -0.1359653206
C -0.2252547858 -0.611329214 -0.8086636204
C -1.422644277 -0.4501587639 0.1302647458
C -1.2578673857 1.0728240511 0.064630783
C -0.2905945171 0.9011422252 -1.1819925044
H 2.5041831421 -0.2410480947 1.4949109301
H 1.7778242259 -1.8204674328 1.1417071541
H 0.8432460069 -0.5744626284 1.9734718429
H 1.8794693532 -0.3615540585 -0.9123195055
H -0.2218304475 -1.4465749583 -1.5085077844
H -1.3751669299 -0.9273785121 1.1106708547
H -2.3427554911 -0.760124569 -0.3660220416
H -2.1320081251 1.6781893141 -0.1601466905
H -0.760943466 1.5176654881 0.9345517247
H -0.6199987589 1.3669803021 -2.1062729975
