14
0
C -1.7781219343 0.6142275695 -0.0253027992
C -0.3659715947 0.1066707519 -0.023322635
C 0.6668106491 1.1677655075 -0.0921850908
N 1.7377682611 1.1297360219 0.579837587
C 1.2570787408 -1.8092398135 -0.0690692091
O 1.4235275289 -2.9960892892 0.0711414882
C -0.0834531496 -1.1992994461 0.0180450376
H -1.9780593142 1.1901288144 -0.9332430542
H -1.9502710708 1.2835006353 0.8216221493
H -2.4942217832 -0.2038613599 0.0280677403
H 0.4079190392 2.012238593 -0.7436737794
H 2.3075338257 1.9542018835 0.4017163785
H -0.8935025491 -1.9197757158 0.084613678
H 2.1007823511 -1.1377271524 -0.2908624914
