12
0
C -2.3288030264 -0.2980338009 -0.7761017056
N -1.0401980301 -0.693911184 -0.258910718
C -0.1118209653 0.1487787283 -0.2926652123
N 1.1543570134 -0.170843763 0.1908917811
C 2.1554079906 0.7073458394 0.1650410161
O 3.2249248815 0.1108305455 0.6934065712
H -3.0809796467 -0.4094915718 0.0072037703
H -2.355337151 0.7348856617 -1.1467437907
H -2.6111137863 -0.9690860424 -1.589696506
H -0.177401533 1.1685605839 -0.6804488528
H 1.2659824647 -1.1102945474 0.5643582004
H 3.9436417887 0.7449735507 0.6738114464
