11
0
O -1.2958789928 1.0499933046 1.4829662882
C -0.5228682652 0.3894167706 0.6467793338
C -0.9346546178 -0.4891007364 -0.4581450092
N 0.4163380826 -1.098443909 -0.3326617138
C 1.3862723033 -0.1390416833 -0.6476357057
C 0.8213766904 0.0848683332 0.7543673676
H -1.7306670159 -1.2001798326 -0.2400270212
H -1.1081907711 -0.0008829335 -1.422034379
H 1.1720933567 0.6134441017 -1.4081381879
H 2.4026141292 -0.5141449108 -0.6544987282
H -0.7369438996 1.3917224954 2.1945647555
