13
0
O 2.1753335191 1.0184909473 -0.4961694756
C 0.9329543651 0.5948802643 -0.2350261275
C 0.6731620249 -0.8825261838 -0.1893215998
C -0.7446798516 -0.8994374019 0.3928538019
C -1.2383808407 0.5472458883 0.1632449871
N -0.0481712153 1.3678192876 -0.0487161739
H 0.7267714989 -1.2896624647 -1.2028716645
H 1.4145408092 -1.4093663912 0.4114599134
H -1.3903758338 -1.6452021174 -0.0698768754
H -0.7060754372 -1.115486481 1.4618181637
H -1.8816195683 0.6227853258 -0.7192588308
H -1.8119164278 0.9314678251 1.0082752507
H 2.1456249575 1.9823015018 -0.5146643692
