12
0
C 1.6275926132 -0.0305531526 0.6905454884
C 0.3648913379 0.2372577987 -0.0672583692
C -1.9587166522 -0.4284607351 -0.3186133242
N -0.7563995917 -0.4588185277 0.2058533042
C 0.2859576541 1.179599611 -1.1021751684
N 0.185366323 1.9491363489 -1.9590063435
H 2.4057822844 -0.4725456461 0.0622821839
H 1.4380049827 -0.7260563503 1.5123181344
H 2.0360446074 0.8821283221 1.129606422
H -2.704108073 -1.0915065132 0.0852911516
H -2.1644791766 0.2546807616 -1.1274532438
H -0.6355523093 -1.1241719174 0.9594197647
