14
0
C -2.0761851227 0.5315767753 -0.2625515165
C -0.957048315 -0.4052900359 -0.6910937304
N 0.0091839972 -0.5569310088 0.3748659188
C 1.2277539671 -0.2824508926 0.2043571896
N 2.1776659887 -0.4841883151 1.1735625808
C 1.7835003531 0.2326685874 -1.0507604258
N 2.2146637311 0.6542163452 -2.0266155881
H -1.6904159706 1.5359225956 -0.0779926696
H -2.5441007489 0.1728634219 0.6549284315
H -2.8382159047 0.5977088485 -1.0409010063
H -0.5044512561 -0.0463633366 -1.6244643542
H -1.3728410906 -1.3961419627 -0.8951128569
H 1.8108367661 -0.6719837766 2.0916198557
H 3.024552605 0.0537707544 1.1285341714
