10
0
C 1.49839022 0.0930848322 -0.0538060926
O 0.2480104547 0.3019160081 -0.705787961
C -0.8813611588 -0.0162972991 -0.0704486025
O -0.6751663965 -0.5203164577 1.1565562054
N -2.0424818962 0.1251713767 -0.5380054985
H 1.5650035882 0.6808936611 0.8617586402
H 2.251754667 0.42487426 -0.7638191478
H 1.647560065 -0.9614777156 0.178660644
H -2.014771834 0.5183901102 -1.4707601305
H -1.5506127095 -0.7085287758 1.511618943
