7
0
C -0.6738616713 -0.5316222955 -0.0787405462
C 0.5688361008 -0.0771045626 -0.1504664536
O 1.0159955438 1.1296525325 0.2669148544
H -1.4811601147 0.0568705071 0.3433438744
H 0.2841821563 1.6317722593 0.6355340316
H -0.908044602 -1.5193185636 -0.4473266173
H 1.3788685871 -0.6614488772 -0.5712511434
