11
0
N -0.7349014824 0.3953488904 0.4276735577
C -1.842415369 0.8405955394 -0.2038519289
O -2.1279676813 0.5708193478 -1.3473288353
C 0.2147434105 -0.4686087155 -0.2491076215
C 1.4536675156 -0.574593298 0.5140669417
C 2.4628898975 -0.6603498228 1.1505366257
H -0.5676481556 0.6467082952 1.3853806235
H -2.4682032922 1.4869894789 0.4359063933
H 0.417344206 -0.0618257983 -1.2424663629
H -0.2122191987 -1.4647566859 -0.399687355
H 3.3666501497 -0.7368662312 1.7079979618
