19
0
C 1.8665488462 -0.2836237866 -0.8844418766
O 2.0189788732 -0.5502233394 0.4951139994
C 1.7355714982 0.4580725055 1.3415268536
C 1.2968997255 1.6763208502 1.0452236637
C -2.2808982371 0.2928121442 -1.274116028
C -1.8337640118 -0.0635158571 -0.0790490817
C -1.520541347 -1.4636429935 0.3410170867
H 2.5236043326 0.5347357969 -1.1950762288
H 0.8300536617 -0.0272375308 -1.1243550714
H 2.147908662 -1.1954666436 -1.406331881
H 1.9167396515 0.1488119151 2.3649041036
H 1.1194796592 2.3746624352 1.8501308706
H 1.100207272 2.0097072156 0.0360093249
H -2.462621178 -0.4406688335 -2.0534279805
H -2.4867051322 1.3286928668 -1.5157768989
H -1.6607819484 0.7068274412 0.66838817
H -2.12463769 -1.7534356747 1.2046385839
H -1.7102595406 -2.1753194617 -0.4639554437
H -0.473505097 -1.5524440496 0.6434028342
