10
0
O -2.2621452432 -0.8985366002 -0.0102314179
C -1.5698854379 0.1955426367 -0.4646963995
C 0.5666033619 0.6118243617 0.359362077
O -0.1497017118 -0.0834364332 -0.4717691153
C 1.9358220561 0.2330596972 0.2723696993
C 3.1233347522 0.0398705451 0.3315301122
H -2.2548441266 -1.5894439916 -0.6763104326
H -1.736348487 1.0258553402 0.2190619835
H -1.8113460269 0.4557067287 -1.4987863286
H 4.1724808633 -0.1370412846 0.379279822
