14
0
O 1.0960951651 2.1517594579 0.6956921018
C 0.7024291984 1.1437078521 0.2001513859
C 1.408059707 -0.1444799573 -0.0682897955
C 0.4833721538 -1.3225097929 -0.2123895798
C -0.7889318432 -1.208107758 0.2534736222
C -1.3620764491 0.0431016 0.5427658707
N -0.7125587444 1.0820351798 -0.2887905721
H 2.1248241725 -0.2733658667 0.74916602
H 2.0147726367 0.0405084235 -0.9651486036
H 0.9231584891 -2.2785009933 -0.4567060599
H -1.3898063999 -2.0984678103 0.4130974645
H -2.4190749023 0.2117460503 0.6755606844
H -0.7060954796 0.8212833668 -1.2919157809
H -1.1250417041 2.001166248 -0.1572277576
