15
0
C 2.5888624831 -0.1602779161 0.7419416915
N 1.3386715871 0.2220062651 0.1333695292
C 0.5881922494 -0.6871485435 -0.3075203121
C -0.7357038967 -0.4170665009 -0.9441843444
C -1.7341405255 0.4586335316 -0.2704523853
N -2.5125470429 0.4975104801 0.8370990993
C -1.1590253715 0.9867857204 -1.2952283968
H 2.7634591692 -1.2459444982 0.7411118459
H 3.4120035029 0.3293124843 0.2167476069
H 2.6118709524 0.1981098992 1.7736732829
H 0.8824735732 -1.748180304 -0.2457047813
H -1.0985366548 -1.2586952863 -1.5401325014
H -2.8581032596 -0.3808461014 1.1795298453
H -3.1527155943 1.2679276936 0.919557756
H -0.9170231722 1.8269710763 -1.9164749359
