13
0
O -1.7010939025 0.5432572569 -0.9848852176
C -1.0288524737 -0.3066865913 -0.0981048367
C -0.3704962958 0.2387419645 1.1901039387
N 0.9228680054 -0.4363758508 0.8666593968
C 0.3406572138 -0.8483843907 -0.4597516345
C 1.3788622368 0.1907405032 -0.364946513
H -1.7285159559 -1.1097583068 0.1290694679
H -0.7957879283 -0.153163568 2.1120089299
H -0.2875401632 1.3265229384 1.2631085549
H -1.0855885273 1.2044279942 -1.3084881217
H 0.541444965 -1.8187313804 -0.8975199162
H 2.3834548244 -0.0939644429 -0.651237949
H 1.1439520014 1.2388448737 -0.5361140994
