17
0
C -1.367222146 -0.4230424246 0.5227599525
C -0.5834444503 -1.4051960671 -0.3407534976
O 0.7665355946 -1.5933874331 0.0202988549
C 1.5099748261 -0.4401236427 0.3473641574
C 1.2915445497 0.7643379017 -0.5612871759
C 0.0216267284 1.5261864115 -0.2898273531
C -1.0993312056 1.0264533709 0.2161188532
H -1.1946992237 -0.6403405038 1.582965806
H -2.4299588018 -0.6170490151 0.3515790991
H -1.0345673354 -2.3966754024 -0.2708622357
H -0.6547202256 -1.0856236826 -1.38963038
H 1.3064772642 -0.1409744958 1.3848536817
H 2.5540817799 -0.7545680537 0.2967755282
H 2.1349990411 1.4435534635 -0.4085622245
H 0.0505745963 2.5902212215 -0.5059340312
H 1.3498859426 0.453821399 -1.6106508761
H -1.9199269348 1.7122639528 0.4053788409
