10
0
O -1.9352382509 -0.9076296521 -0.8360602065
C -1.5912364375 0.4274434741 -0.5950700224
C -0.2049151036 0.8128017626 -0.2453328234
O 0.4835917824 -0.3156580497 -0.0569064949
C 1.7462949972 -0.2112222001 0.3082934676
C 2.8894595969 -0.2108753102 0.6406365593
H -1.3850558379 -1.4788585776 -0.295155655
H -2.1699162599 0.8726219475 0.2375342278
H -1.8651585312 1.0254043983 -1.4708525024
H 3.9105200444 -0.1861177929 0.9367334499
