18
0
C -1.4692661079 -0.2426120394 -1.6382355283
C -1.0505203945 -0.0680931819 -0.1835745233
C 0.4360572334 -0.3179095702 0.0573499916
C 1.1860247546 1.5605118826 1.449676267
N 0.9589913993 0.1322783782 1.337856629
C 0.8270965437 -1.7842307908 -0.0464573096
O 0.0629933485 -2.6940680134 -0.2133981703
H -0.9145027477 0.437678148 -2.2898436893
H -1.2904572994 -1.2625435816 -1.9793639569
H -2.5315453995 -0.0299788735 -1.7671484443
H -1.2844867222 0.948717488 0.1443041664
H -1.6250770182 -0.7486565595 0.4514767437
H 1.0226525288 0.1960181083 -0.7176471503
H 0.3001674867 2.1796605295 1.2487150874
H 1.5384139985 1.7916197577 2.4553070745
H 1.969771549 1.8576650583 0.7496109622
H 0.3613431986 -0.1942074563 2.0854726795
H 1.9121076485 -1.9622902843 0.0936191707
