11
0
C -1.8505765742 0.0765136003 -0.4185851049
C -0.4041370916 -0.2894154928 -0.5073829715
O 0.1208002491 -0.8329532962 -1.4453744519
C 0.4878927927 0.1048435813 0.6809871533
O 0.0869502378 0.7523945399 1.6190546051
C 1.8378566592 -0.4964377183 0.6824717415
O 2.7352361152 0.2949310501 0.1993977201
H -2.291640648 -0.385114291 0.4670754012
H -2.3687875172 -0.2467409235 -1.3180593539
H -1.9494228598 1.1555451153 -0.2852905653
H 3.6020736366 -0.1261191652 0.2677458264
