14
0
C -2.2794727183 -0.5488592853 -0.3661970021
N -1.4132714227 0.0318125329 0.640507126
C -0.2255410291 0.2498728422 0.3508705521
C 1.0341131254 0.8370046863 0.9589491153
C 1.8161391098 -0.3401467128 0.3404324925
C 0.8561916055 0.1974668692 -0.7404695793
O 1.2111664552 1.5634145221 -0.3160379712
H -1.7745125864 -0.7586622819 -1.3164390512
H -3.1109808045 0.1326401561 -0.5532560839
H -2.7028293051 -1.4770465675 0.021591896
H 1.1942812873 1.3779817592 1.8866667098
H 1.6452779666 -1.3407182039 0.7378632114
H 2.8631143642 -0.1163761147 0.1434333387
H 0.8204689521 -0.0109872022 -1.806018754
