15
0
O 1.517907404 1.072201472 -1.2720192477
C 1.9094451445 -0.0170331337 -0.4513993683
C 0.8536885659 -1.082961627 -0.3006358751
O -2.5911269732 -0.5600314335 1.8090758636
C -2.1472931096 0.4324500156 1.3015786994
C -1.0336139002 0.4681068448 0.2885321729
C -0.4188432447 -0.8671492714 0.009476517
H 1.2311008663 0.7186383672 -2.1166615353
H 2.8333194769 -0.4675453147 -0.8305785882
H 2.148932498 0.42326696 0.520760909
H 1.1743937504 -2.1075324684 -0.4623739715
H -2.5656640208 1.4281198227 1.5589797232
H -0.2964556543 1.2083525672 0.6124982322
H -1.4656301503 0.903383213 -0.6226093875
H -1.0896456529 -1.7158370135 0.0903478564
