11
0
C -0.794698712 0.9521261926 -0.3000621151
C -1.1802883555 -0.4006403729 0.2348197976
C 2.3115667099 -0.8834847999 -0.5426669127
O 1.0741524263 -0.5965166137 -0.7546649024
C 0.2430525443 0.0268689093 0.2245188061
H -1.0246943428 1.8345250993 0.2813395093
H -0.8226570214 1.0853045567 -1.3732067348
H -1.6807690546 -0.4663309895 1.1912303975
H -1.460153693 -1.1557889812 -0.4871926237
H 2.5495500029 -0.5521677932 0.5065023465
H 0.7798134958 0.2367147924 1.1436214317
