13
0
C 1.4814530358 0.0382771618 0.5573442976
C 0.3411774195 -0.1786146451 -0.4177646266
C -0.7770451057 -1.1867923572 -0.0361211823
N -1.7719588051 -0.0737864209 -0.0297019035
C -0.8372936589 0.7380700286 -0.3355303096
O -0.8981542339 2.0528529879 -0.5261619609
H 2.0596471242 0.9253831826 0.2939111244
H 1.1052945609 0.1684950345 1.5742574334
H 2.1569040001 -0.8192198713 0.5524037694
H 0.7109189709 -0.3050057199 -1.4377360299
H -0.6593199637 -1.6489432447 0.9457745602
H -1.0017254706 -1.9529833674 -0.7793224873
H -1.8127898734 2.3280922311 -0.3860486849
