14
0
C -0.9475701059 2.0162023181 -0.1758051118
C 0.0169647628 0.8764716501 -0.1936075571
C 0.9623501774 0.6673341384 0.7217694681
O -0.1938905283 0.0774520017 -1.2669733609
C 0.0987978541 -2.7908271022 0.1246101526
O 0.8927775241 -2.4991774523 -0.7285673539
H -0.8526004577 2.5954417862 -1.0964155838
H -1.97189246 1.6397918877 -0.1331519859
H -0.770245577 2.6691613665 0.6762123509
H 0.0953785827 -3.7942140616 0.583637616
H 1.0748006685 1.3475423944 1.5530631594
H 1.6572040282 -0.1597489542 0.6431265892
H 0.4027513943 -0.687425557 -1.2385675419
H -0.6537268632 -2.0683494156 0.4852761591
