11
0
C 1.7610515457 0.8700496299 0.1877743489
C 1.049541327 0.8338313246 -0.989181522
C 1.1284519271 -0.6957273853 -0.9947890027
C 1.2050951341 -0.397870282 0.4355413469
C -2.0860497491 0.4479035439 -0.0620202838
C -2.5747698932 -0.1677320118 0.8391867315
O 1.1466894549 -1.5825384059 -1.7774530971
H 2.2528121009 1.6272428549 0.7761161861
H 0.5188671544 -0.6814309462 1.2308913992
H -1.6297024595 0.9918829959 -0.8600182056
H -3.0294455422 -0.7101823179 1.6350050985
