16
0
C -1.1181298685 1.4132580077 -1.1231005162
C -0.7508559291 0.2876323271 -0.1599369462
C -1.503995063 -1.0031265302 -0.5037392728
C 0.7143621398 -0.0286727502 -0.2951845791
C 2.6097275611 -0.4711677282 0.9824994506
O 1.2215918748 -0.1285708351 0.8940103052
H -0.577931758 2.3321926416 -0.8877535054
H -2.1879532743 1.6271581612 -1.0686154881
H -0.8712124332 1.1345417291 -2.149455193
H -0.9966999721 0.5788413289 0.8696631762
H -2.5806510806 -0.8238672101 -0.475725536
H -1.2745133517 -1.8008149353 0.2051686485
H -1.2374239948 -1.3494619073 -1.5043730374
H 3.0168947794 -0.5716626628 -0.0223423591
H 2.6861979473 -1.4080543488 1.5330159392
H 3.1131104233 0.3222087125 1.5336699137
