14
0
C 1.9943971341 0.1740507772 -0.4931897574
N 1.019241904 0.3006003685 0.573858803
C -0.3088503217 0.1470551904 0.2310187762
O -0.9025735985 1.2165372135 -0.5104117568
N -1.2533035361 -0.4765905639 1.0929394305
C -1.3150901491 -0.8015662256 -0.3208696446
N -1.9381491672 0.3180650121 -1.0241941399
H 1.7593070324 0.8921810665 -1.2783446271
H 2.0226556685 -0.8298426064 -0.93587609
H 2.9839410486 0.4161577885 -0.1070197821
H 1.2406103689 -0.2138195447 1.4104776791
H -2.0004607042 0.1417229808 1.3973421134
H -1.3814564303 -1.8243691682 -0.664683931
H -1.7150312494 0.2431687112 -2.0145740734
