11
0
C 2.4104951419 0.3915812155 0.4563951357
C 1.2508001911 0.2429925071 0.1940558785
C -0.1487187249 0.0002714304 -0.0695326681
C -0.7802858732 0.1466362103 -1.3974604437
C -1.1304479801 1.0128449027 -0.5138726723
N -1.8466682568 -1.1989251697 1.1575843344
N -0.6944298456 -1.0708113317 0.8650466579
H 3.441104399 0.5421421271 0.6772780043
H -0.8468817722 -0.2825195097 -2.3810990542
H -1.6981418311 1.8688383779 -0.1984967619
H 0.0709735519 -1.6700267599 1.2387335891
