16
0
C -2.5612209205 -0.4712642311 0.1386714032
C -1.1604893315 0.0235420534 0.0645224985
C -0.6924258277 1.2753868405 0.0468128497
C 0.7957233179 1.1959399471 -0.0370693495
C 0.9940928066 -0.2944859713 -0.0590325921
C 2.3226462333 -0.9627966101 -0.1412795817
N -0.1104672223 -0.9385491347 -0.0019064538
H -2.6926179413 -1.1060295157 1.0176181554
H -3.2708105838 0.3540306764 0.190986283
H -2.7944836028 -1.0833395534 -0.7353218003
H -1.2722001273 2.1857027729 0.0842706243
H 1.306397805 1.6523985739 0.8173930116
H 2.1935723596 -2.0433981971 -0.1477907801
H 2.8529187613 -0.660625665 -1.0476520952
H 2.9515917578 -0.6837144069 0.7076469326
H 1.2089755158 1.6630964209 -0.9372141055
