14
0
C 0.5237390013 1.8543345324 1.1435133826
C -0.1442688703 0.6567597816 0.5944734123
C -0.4128746509 -1.4459916724 -0.7662692782
C -1.8227337927 -1.4335473151 -0.3889298665
N -2.9245075021 -1.3958840966 -0.0709197242
C 0.4043121967 -0.2550752699 -0.2571088372
C 1.7742461044 -0.0959994428 -0.5954921122
H 1.5046794687 2.0005074451 0.6994409958
H -0.1179124023 2.7261188106 0.9883697117
H 0.6258033066 1.7424435803 2.2277414954
H -1.1692138266 0.4965962819 0.9306264943
H -0.357740476 -1.4816776439 -1.8566446683
H 0.0277357188 -2.3759728979 -0.3992011559
H 2.1139807245 -1.0066760935 -1.1249878498
