14
0
N 1.6540151746 0.6641197547 1.9176960139
C 0.7634809508 0.090895402 1.0381648076
O -0.4264894299 0.7028917602 0.4343245117
C 0.6657360409 -1.1963006046 0.2813225266
C -0.4591597993 -0.5975376803 1.0711180645
C -1.5674807308 0.5085029582 -2.0716832281
O -1.5328957154 -0.6083164018 -2.5056960914
H 1.203547474 1.1897725222 2.65219228
H 2.3640936493 1.2178925116 1.4626551453
H 1.1770326313 -2.0377382208 0.7396334379
H 0.6078860853 -1.1906708446 -0.802283118
H -1.1867126275 -0.8975023288 1.8046047599
H -0.7774138646 1.2489212774 -2.2898410125
H -2.3994658385 0.8661828947 -1.4391760974
