11
0
C -1.220520155 1.0820990528 0.5549090561
O -1.0618488135 0.1130848772 -0.4615677939
C 1.0618608768 -1.4807757838 0.0664221388
C 1.1333323016 -0.4541321813 -0.7637376302
O 0.1525784164 0.4156872134 -1.1232951044
H -2.173345053 0.8361398628 1.0238901384
H -0.4160945251 1.0151412198 1.2924180257
H -1.2643108237 2.0879132654 0.1310504274
H 1.9514493147 -2.0693779369 0.2353567191
H 0.1466488447 -1.7595630509 0.5663576875
H 2.0370556163 -0.1674645384 -1.2901476645
