16
0
C 0.8858567787 1.6606774775 0.7747174563
C -0.112530366 0.6699841396 0.2617618224
C 0.878527104 -1.4941636781 -0.5307624214
C 0.1265360418 -0.7840820984 0.59679963
O -2.9967931224 -0.1752621068 -0.2758674378
C -2.1004123549 0.2849626381 -0.9339351381
N -1.0783621005 1.0777362913 -0.448667519
H 0.686727999 2.6525836711 0.3763213586
H 1.9002821391 1.3527182461 0.5084950259
H 0.8389598454 1.6919749351 1.8664142263
H 1.0700264216 -2.5346030687 -0.2671212928
H 0.2976260562 -1.4854945691 -1.4549603286
H 1.8392430721 -1.0170425751 -0.7348121797
H -0.8317940026 -1.2733106647 0.7741110473
H 0.703698567 -0.8448438121 1.5217609889
H -2.0737820788 0.1886661741 -2.0352482383
