13
0
O 0.3655423376 1.451045686 0.1887025419
C 1.5400371521 0.7854381059 0.1107541859
C 1.7625977197 -0.4348715159 -0.3618318757
C -1.2349097433 -0.3227814879 0.6112010649
C -0.7817477827 0.787864265 -0.2984511699
N -1.8480083767 -1.3224964109 0.1491859275
H 2.3398067823 1.4044789235 0.500447887
H 2.7756634439 -0.8103895203 -0.3581739609
H 0.9881994316 -1.0827068821 -0.7481621915
H -1.0177110483 -0.1678307692 1.6751290123
H -0.627040438 0.4027218972 -1.310655543
H -1.5626403164 1.5504466265 -0.3361251607
H -2.1275301619 -1.9597509175 0.8911562824
