18
0
C 1.5178852758 0.0233521324 0.9788664343
C 1.4107327159 -0.5566007117 -0.4302950077
C 1.0384915434 -2.0108681122 -0.3934369078
O 0.081699254 -2.4951567974 -0.9342886578
C -2.3043073317 -0.0681224005 0.0928424336
C -2.3236853854 1.0174157102 -0.6630532771
H 1.8896926796 1.0471258001 0.9464644652
H 2.2015471249 -0.5608291292 1.5993042858
H 0.5418997761 0.0361368788 1.4667838636
H 2.3823954197 -0.4867167925 -0.9325347279
H 0.6760081229 -0.019264974 -1.0305710488
H 1.7236658068 -2.6539143922 0.2022543096
H 0.6424170588 3.2033761037 -0.7697744185
H -2.6718041681 -0.0519796695 1.1132193054
H -1.9252993527 -1.0126251815 -0.2816202043
H -1.9665942543 0.9991888453 -1.6870788261
H 0.1402604386 2.679571043 -0.598492968
H -2.7052017244 1.9636896472 -0.2957670534
