11
0
N 1.9359841081 -0.4738846483 -0.2356584274
C 0.6084162714 -0.2825915067 -0.3756617685
C -0.2944571089 0.8472557102 0.0116119077
N -0.980212064 0.6985809215 1.3095164307
C -1.7990681045 -0.081919269 0.7087190369
N -1.3469022653 -0.0024708754 -0.6418238762
N -0.2934683463 -1.0466945758 -0.8864772913
H 2.3590773065 -1.25053928 -0.7120661376
H 2.5228388967 0.3087212171 -0.0190991657
H -0.1075459605 1.8615661807 -0.3350931143
H -2.6281597333 -0.6636838744 1.0969604057
