16
0
C 0.8575190098 1.2840470452 0.1992630807
C 0.3770109136 -0.166877251 0.0996178526
C -0.1769093789 -0.649704469 1.4463558388
C -1.8675795492 0.5539735222 -0.8789699801
C -0.7207162646 -0.3224715769 -0.9768772362
C 1.5106252235 -1.0234561362 -0.2869140638
N 2.3865080876 -1.6960463147 -0.5996005121
H 1.297936171 1.6197035663 -0.741230153
H 1.6088648339 1.385766671 0.9825628436
H 0.007265835 1.9250004661 0.4309981203
H 0.5787093096 -0.5725733539 2.22820723
H -0.5078507702 -1.6880725887 1.3895507342
H -2.6055688442 0.1808329482 -1.6105277561
H -1.0288203836 -0.0231407594 1.7178667214
H -0.9067870826 -1.3766978168 -1.2213655815
H -0.3721881111 0.1222760475 -1.9441671386
