14
0
N 2.535513972 -0.1906926108 0.5672033872
C 1.3880101423 -0.1970761773 0.0835593717
O 0.6434176092 -1.1867697677 -0.4899439226
C -0.5159794749 -0.3147956575 -0.7017057956
C -1.7364616606 -0.7799661914 0.0389169663
C -0.2040442958 1.7817548884 0.8924527724
C 0.2862087268 0.8401623745 -0.073255671
H 2.983589906 -1.1016680601 0.5104242137
H -0.6960157535 -0.2205319709 -1.7739751871
H -1.5264089262 -0.8892437424 1.1044076985
H -2.0850023303 -1.736462917 -0.3520939555
H 0.687498293 2.1661014409 1.42071305
H -2.5315875926 -0.0416824991 -0.0749828831
H 0.5824983846 1.6375558903 -0.7973000449
