14
0
C -1.565721152 1.2087170858 -0.1146251375
C -1.0205173587 -0.1074476851 0.37820872
C -0.7464585622 -1.2385756091 -0.5959379086
C 0.3567776061 -0.5077140564 0.0480984578
C 1.6180055863 -0.3178620416 0.1865650197
C 2.8985505277 -0.1249322348 0.3353353976
H -1.1628028526 1.4471996531 -1.1007078
H -1.2949659817 2.0207679577 0.5622510603
H -2.6550451004 1.1756003487 -0.1885251008
H -1.3714534569 -0.4179267308 1.3583013985
H -0.9269571342 -1.0499610545 -1.6488508228
H -0.9403871258 -2.2553994424 -0.2747623746
H 3.4574758641 -0.6502350932 1.101095683
H 3.4406901405 0.5631409026 -0.3027785926
