13
0
N 2.8310531132 -0.0558160816 -0.0973570856
C 1.7027436452 -0.5996453279 0.3358632654
O 0.7016004824 0.1890403451 -0.0482782158
C -0.5891236141 -0.2543429049 0.3002477407
C -1.6331363892 -0.1743892909 -0.7566579255
C -1.6405292062 0.7905659601 0.4048391476
H 3.6958165816 -0.5177523863 0.1089860965
H 2.8595641492 0.8076749837 -0.6263747021
H -0.5670212931 -1.0893819075 0.9872266489
H -1.3197722483 0.2158498662 -1.7158283016
H -2.3821636622 -0.9536661642 -0.8002201879
H -2.3945730002 0.6822693836 1.1728942064
H -1.3375475584 1.8085575247 0.1987913131
