16
0
C 2.5792563292 -0.3201194247 -0.1585223796
C 2.503538071 0.9883992545 -0.3563781501
C -1.0777260653 -0.0022064656 -0.6626470444
O -0.294926975 0.0441216748 -1.7414118877
C -2.4072315686 -0.0846068134 -0.7485867934
C -3.1915608574 -0.1321835579 0.4364541228
N -3.8242882909 -0.1717202732 1.3966213105
H 3.0993938992 -0.9716475847 -0.851626067
H 2.1418621094 -0.7895584998 0.7160205688
H -0.4845542105 -0.7832532122 2.9473829902
H 2.9572997773 1.4599823591 -1.2208814216
H 1.9984669826 1.6423062479 0.3461612746
H -0.5822840589 0.0270513396 0.304460418
H 0.6294528943 0.1062259656 -1.4633832669
H -1.2060475339 -0.6613096347 2.8004034255
H -2.9114965026 -0.1161333753 -1.7051700997
