14
0
C -1.8608586836 0.315557636 -0.4583680112
C -0.4097348293 0.1749065621 -0.1435125292
C 0.6014965447 1.0223762142 -0.3848439007
C 1.9320099094 0.6020383656 -0.0465504392
O 1.5035323542 -0.7177043697 0.8260736247
C 0.1218820124 -1.0784599818 0.4674711954
H -2.2023649761 -0.4272108132 -1.1884493888
H -2.0666940302 1.3020578242 -0.8743242231
H -2.4844051665 0.195091362 0.434268071
H 0.4607166041 1.9935819255 -0.8476156405
H 2.4078727998 1.2202303008 0.7187458878
H 2.1122895421 -1.3824898506 0.4947660889
H -0.3912418675 -1.4082985158 1.3756197763
H 0.1816967863 -1.9229826594 -0.2334385114
