12
0
O -2.0572469538 0.718532142 -0.6732993572
C -1.5948512341 -0.4817160824 -0.2424711294
C 0.7797941557 0.2580442425 -0.2923827639
C -0.3053977881 -0.7307621831 -0.0583633039
C 2.6428296388 0.0696939159 1.1027607481
O 1.456168212 0.5498473133 0.9640008348
H -3.013171463 0.706043095 -0.7151547855
H -2.3458827018 -1.2455567975 -0.0641382677
H 1.5455966046 -0.1200025517 -0.9716452472
H 0.3874547247 1.2085744787 -0.6488830492
H -0.0218032781 -1.7202194122 0.2775415939
H 2.927200083 0.4121388396 2.1248167273
