19
0
C 1.7478224579 0.0789111188 -1.7163037601
C 1.7056578619 1.0142456545 -0.5344435763
O 0.7145030451 2.0602607887 -0.5990338605
C 0.4548807909 1.7635250516 0.7806790466
C 1.3717087463 0.5891194196 0.8534456801
C -2.2794118491 -1.3022901914 1.2148293068
C -1.2712938103 -1.3646692801 0.0762172271
H 1.9914126613 0.633710609 -2.6225862807
H 2.506283093 -0.6861917834 -1.5495875846
H 0.7810878718 -0.4045481147 -1.8508788169
H 2.7072244705 1.4667784774 -0.3685876064
H -0.5909566447 1.4903094495 0.9701212431
H 0.7240905611 2.5733930644 1.4699391538
H -2.1971926967 -0.3656229631 1.7709060955
H -2.1236537876 -2.1153592021 1.9257134797
H -3.3038792247 -1.3746823091 0.8447318141
H -1.3541938159 -2.3002351391 -0.4802762422
H -0.2475674938 -1.3016204785 0.4579132986
H -1.4220562372 -0.5468031721 -0.633046618
