14
0
C -1.4381772 0.3262073246 0.0853639705
C -0.2690741561 0.5131433118 -0.8347734659
C 1.0032681365 1.0141664728 -0.1760076519
C 1.4142000021 0.1052551677 0.9266526045
C 0.5609821113 -1.1015964519 0.7634594931
C -0.5506883423 -0.8385918794 -0.236721094
H -1.3850367308 0.7559422023 1.0808781033
H -2.4274816641 0.3392404698 -0.3524079728
H -0.4583346761 0.71938657 -1.880277223
H 0.988443398 2.0571818831 0.1557121612
H 1.874149597 0.964720203 -0.8515279751
H 1.2861105768 -1.8495895804 0.4004339156
H 0.2426073265 -1.4950633317 1.733956487
H -0.950134379 -1.6494753617 -0.8318393525
