13
0
O 2.0286038777 0.4195902852 -1.6309199665
C 0.9657692665 -0.100753298 -1.4327574813
C 0.0813699959 -0.2089470395 1.5209937667
C -0.8439047404 -0.1768867838 0.3106770011
C -0.2466148081 0.5883494923 -0.871620055
H 1.0265204408 -0.7070112379 1.291087384
H 0.8185795213 -1.179042304 -1.6684814947
H 0.320289623 0.8026566923 1.8566496975
H -0.3785781294 -0.7396328874 2.3558106033
H -1.7953820543 0.2849792165 0.58362626
H -1.0823293258 -1.1989850806 -0.0021497075
H 0.0262452781 1.6092347288 -0.5970181699
H -0.9823299455 0.6431762161 -1.6825788378
