14
0
C -2.1622364989 0.158663545 0.2118336331
C -0.688802109 0.0332763516 0.0891093384
O -0.0115447311 1.2181955312 0.112995002
C 0.0925394095 -1.0347593278 -0.0226019862
C 1.3630922775 0.9270326089 -0.1871546509
C 1.5324511507 -0.5936157428 -0.0403618268
H -2.6321563787 -0.8232096037 0.203726106
H -2.421296895 0.6679816922 1.142294162
H -2.5633268256 0.7525068599 -0.6117717887
H -0.2499998726 -2.0575909302 -0.0363085111
H 1.9856387992 1.5114622028 0.4892481862
H 1.5554420019 1.2517892472 -1.2137591622
H 2.1051833223 -1.013233095 -0.8694609502
H 2.05001135 -0.8670893393 0.8847504485
