14
0
C 1.9501392491 0.1982048102 0.0389590953
N 1.3573452535 -0.4147977504 -1.1613224465
C 0.4918413399 0.0915785559 -0.0441526199
N -0.3076842517 1.2538929734 -0.1438736266
N -1.6508631819 0.7410665706 -0.0064258159
C -1.5847370374 -0.6077651724 0.5861707237
C -0.3234883533 -0.9836445503 0.5806209304
H -2.1694389965 1.3875890044 0.5851427281
H 2.5381289291 -0.4711148427 0.6590870648
H 2.3450340246 1.2058384216 -0.0399230635
H 1.3078007249 0.2854499627 -1.8944655951
H -2.1543995181 0.6894645593 -0.9006751195
H -2.4956587682 -1.1067754568 0.8799473771
H 0.0561505857 -1.9415360853 0.9036393674
