14
0
O 0.8234449834 1.2150839091 -1.1202801987
C 1.2651165789 -0.1251166232 -0.8077818317
C -0.0047886177 -0.3565345293 -0.0203576416
C -0.8239692958 -1.5366984724 0.2653862744
N -0.0704630878 -0.863637579 1.3282241808
C -0.4306143307 1.0412566617 -0.461107184
O -0.6796930664 1.9807541637 0.5211288294
H 0.1114375009 2.0655660731 1.062786496
H 1.3805542659 -0.7291057165 -1.710605829
H 2.1903348736 -0.1302096133 -0.2275779327
H -0.4629949579 -2.5244655575 0.0036857072
H -1.9024312555 -1.4180319718 0.2395293242
H -0.6863178581 -0.281508843 1.8871736961
H -1.2736167329 1.0995700985 -1.1548008902
