16
0
C 2.9804509227 0.0069235025 -0.2563384471
C 2.1625943456 -0.6877518118 -1.0293883107
C -1.5488723403 -0.055524471 0.474841607
O -0.8393949685 -1.1553505416 0.8576914965
C -0.8027466331 1.1958930532 0.7923225247
C -2.7429905503 -0.1175441272 -0.1050809222
H 3.8997696731 0.4371210241 -0.6376540889
H 2.7631495984 0.1704976238 0.7935222142
H 0.1512554546 1.2076450113 0.2608386893
H 1.2450382967 -1.1137389475 -0.6386947547
H 2.3791835836 -0.8542825541 -2.078774835
H -1.3466398306 -1.9455885074 0.6557314639
H -0.5863624218 1.2400242326 1.8616618797
H -1.3790602883 2.0739246392 0.5087284891
H -3.2297043928 -1.0640551698 -0.3115849989
H -3.2618134492 0.7861790438 -0.387712007
