16
0
C 2.3533009992 0.1314595074 -0.0525166465
C 0.9673571077 0.5771526184 -0.3351359553
C -0.335226551 0.4501861619 0.4295194258
C -0.8543116858 1.1819313457 -0.8309670802
N 0.5350193447 1.2167516068 -1.3546105833
C -1.9212727001 -1.4984430619 0.3435467577
C -0.8181888491 -0.9166791069 0.7888361633
H 2.7143065745 0.5609740182 0.8848248006
H 3.0120841611 0.4346117238 -0.8654920621
H 2.3899941691 -0.9558052597 0.0501701397
H -0.3400300832 1.0849237119 1.3225782421
H -1.5158997855 0.5993456401 -1.4721959987
H -1.2821792725 2.1735309808 -0.6754442678
H -2.5939450307 -1.0062318019 -0.3490733225
H -2.1965256714 -2.4950099674 0.6658692269
H -0.1898557273 -1.4590551175 1.4925291601
