15
0
C -2.1384264977 -0.787525356 0.6790278812
C -0.7695991328 -1.0640595486 0.2408703024
O 0.0659548807 1.2727277285 -1.4080427231
C 0.2110154266 -0.1595478427 0.8574912557
C 1.4920427639 0.0486755534 0.0648116437
C 1.3185290752 0.8075984076 -1.2262902038
O 2.1926509393 1.0024621371 -2.0236246431
H -2.2712549136 -0.2168980804 1.6096013321
H -2.4384697207 -0.1185893953 -0.1499438718
H -2.8091201687 -1.6445639299 0.6263389614
H 0.0613024609 1.7252327713 -2.2611178691
H -0.1945097769 0.7857578658 1.248779685
H 0.4463206388 -0.7731486251 1.7489967445
H 2.2436817004 0.5918807341 0.6427921036
H 1.9312663246 -0.9124954199 -0.2066055984
