14
0
C 2.545493095 0.3619996744 0.0018475145
N 1.3432169167 -0.426872964 0.0927380666
C 0.232178885 0.1663845007 -0.0297097581
C -1.0519622981 -0.5000849041 0.0416047671
C -2.377290803 0.1902835658 -0.1057673486
N -1.024855637 -1.7862833728 0.2421588649
N -0.9637786881 -2.8933780785 0.4157100058
H 3.1172953643 0.2643847967 0.9277755472
H 2.3552403704 1.4292228746 -0.1813021687
H 3.1751708319 -0.0228773672 -0.8037953524
H 0.1623563767 1.2507000882 -0.2021927649
H -3.1952904941 -0.5229040856 -0.0103497265
H -2.5163606665 0.9549334998 0.6622080977
H -2.4694032531 0.6714247719 -1.0824147445
