10
0
C 0.7255922695 0.9496927764 -0.0028804702
C 0.6679019336 -0.4846204607 -0.4528356364
N 0.7181332304 -1.4849750756 0.6836252118
N -0.4927776572 -1.4328858665 0.9443301236
C -0.8321414801 -0.4191577489 -0.1289676373
C -0.5791617629 1.0062716284 0.2794489688
H 1.5513184705 1.6373804439 0.1178614305
H 1.1144872474 -0.8265646812 -1.3819570143
H -1.6503062767 -0.7021938093 -0.7849962394
H -1.2229039745 1.7574707935 0.7162992631
