12
0
O -2.1698520021 -0.319615145 -0.8211273297
C -1.358900107 -0.4514397062 0.3003277211
C 0.2098618276 1.4791342681 0.033507721
N 1.4865269271 1.5924725037 -0.3051746908
N 1.9805510874 0.3233147196 -0.4776961502
C 1.0610464661 -0.5846383056 -0.2634300866
N -0.0340787638 0.0902748735 0.0636202947
H -2.2620772418 0.622409014 -0.999458303
H -1.2800488812 -1.5158268326 0.5226573927
H -1.7598039001 0.080652454 1.1654963816
H 2.9424275411 0.1724158293 -0.7293449707
H 1.1823000467 -1.6528106728 -0.3410649803
