12
0
N -2.1553760618 -0.442237044 -1.2848682084
C -1.7054770637 0.2046724596 -0.4463516781
C -0.8997544991 0.9551315165 0.5291965672
C 0.5561730776 0.5138339316 0.6019110032
C 0.8041212025 -0.9265201315 0.4047221755
N 1.0322999239 -0.0324894056 -0.7504864367
H -0.9717262379 2.0157858411 0.2825677974
H -1.3331253935 0.8332955679 1.5232678925
H 0.3883684693 -0.1897143031 -1.5223418877
H 0.0148958014 -1.6484429106 0.1858366383
H 1.7000643842 -1.3711956391 0.824449449
H 1.973667397 0.1954221171 -1.0259373122
