14
0
C -1.6625712009 0.8191434018 0.6961451876
C -0.2165835231 0.5623812904 0.9349550386
C -0.2025228842 -2.4474455911 -0.56105295
O 0.9992854344 -2.0916635513 -0.8937846072
C 1.384634907 -0.7585107045 -0.7262365912
C 0.6988443388 0.0689474526 0.0599688219
N 0.8468721522 1.5046360434 0.2719911044
H -2.1559240329 -0.1533837193 0.7396839891
H -1.8731244696 1.2436660585 -0.2962135532
H -2.1021306737 1.4624098525 1.4585994276
H -0.1849259177 -3.5419095089 -0.7613940571
H 2.313742576 -0.5231924035 -1.21702099
H 0.6282763654 2.080926346 -0.5357484405
H 1.5818139283 1.8622920335 0.8634096198
