16
0
C 1.3615339764 -0.3515304838 -1.8012805118
N 0.6589441657 -0.150683324 -0.5210103524
C 1.3602296518 0.3906740448 0.4454827194
C -0.6287604489 -0.5688062388 -0.5461140488
C -1.67991545 -0.3230729267 0.4028245999
O -2.762216496 -0.873741722 0.2488686961
C -1.5081748538 0.654208038 1.5482290423
H 2.4107111193 -0.0966210426 -1.687463586
H 0.8980527504 0.2754529427 -2.5600425201
H 1.2686477133 -1.3969844665 -2.0870816797
H 0.9407577636 0.49474488 1.4286812028
H 2.3661592879 0.7093905281 0.2331654273
H -0.9048067704 -1.1411140326 -1.4185415062
H -2.501706131 0.9332613302 1.8925886969
H -0.9775459323 0.1859587497 2.3817392852
H -0.955228346 1.5487957237 1.251503535
