15
0
C -2.4070341308 0.1562070914 0.0792851814
C -0.9343727521 -0.3495225673 0.0112844419
C -0.2247227795 0.6282372496 0.8399614797
C 2.5681935237 -0.8797026652 -0.0917722488
C 0.165452511 1.8032898077 0.1966501105
N 0.5330398647 2.8179749525 -0.2321940202
H -2.7565610935 0.2255515692 1.1085296673
H -2.5155402083 1.1290033693 -0.3993732036
H -3.0264963401 -0.564587977 -0.4527202132
H -0.8945231861 -1.3445899157 0.453410478
H -0.6286128311 -0.3834789692 -1.0387323129
H 2.1239868734 -0.5809280789 0.8591841741
H 2.1025312337 -1.8003097271 -0.4414551917
H 2.4246147433 -0.0918194788 -0.8304443066
H 3.6345295718 -1.0449786603 0.052662964
