18
0
C 2.7914607937 -0.2666315204 0.1076470937
N 1.550475817 -0.4918630051 -0.0684583984
C 0.5367330675 0.336941607 0.6397075171
O 1.0376320724 1.2023793001 1.3726738794
C -0.7526059465 -0.0018323292 0.3362326944
C -1.2303651011 -1.0991202522 -0.569733621
C -1.8416895972 0.7958076353 0.9849281639
H 0.2351359365 1.3716978212 -2.7645396945
H 3.5338739066 -0.8565330809 -0.4125637785
H 3.024540809 0.5373230928 0.7986105362
H 1.2431644132 -1.2192008126 -0.6978166025
H 0.0761137599 1.2562695876 -2.0430867557
H -1.836989979 -1.8215989499 -0.0123388826
H -0.4593354383 -1.6784029321 -1.0825321993
H -1.8777783498 -0.693580351 -1.3554198489
H -2.4784036892 1.2780682939 0.2342134189
H -2.4954475747 0.1566734399 1.5892459301
H -1.4212139 1.5664004555 1.6280035475
