15
0
C -1.3582580746 -1.3787907735 -0.6557154717
C -0.4918613656 -0.8736141716 0.4940890172
C 0.9004636648 1.138788143 0.1387398204
C 0.4621869375 2.4494114373 0.5216133846
O 1.7459538921 2.0924222639 -0.1194403064
C 0.7858170035 -0.2112074307 0.0100281376
C 1.9073184416 -0.8190015441 -0.5873814027
H -2.2432636411 -1.8995791706 -0.285803571
H -0.7970773653 -2.0727171121 -1.2850648757
H -1.68922374 -0.5527840549 -1.2892278597
H -1.0693582014 -0.1796163616 1.1139148923
H -0.2192369553 -1.7100222418 1.1431314097
H -0.2113325408 3.0075114852 -0.1182028645
H 0.5574954268 2.7753944423 1.5508501336
H 1.7107955178 -1.9082439106 -0.6436444436
