15
0
C 2.6301068377 -0.6430730514 0.1234693206
N 1.2338584327 -0.2517930535 0.0747538862
C 0.7649656584 1.0589148749 -0.1347146238
C -0.6003673428 1.0911924061 -0.1173569041
C -0.8571046983 -0.3339023587 0.1249008273
C -2.0320860204 -0.9615637349 0.2478663112
N 0.3259970236 -1.115786582 0.2334731181
H 3.1215802327 -0.3105702089 -0.7895906327
H 2.6813339147 -1.7237049222 0.2160170885
H 3.1009942584 -0.1651617156 0.9818374315
H 1.5121642098 1.826853172 -0.2802094087
H -3.1893421951 2.0611591977 -0.6659144797
H -3.924235121 2.1416488767 -0.7936038961
H -2.9513243527 -0.3954980259 0.1698247083
H -2.0805628374 -2.0300458741 0.4248322533
