15
0
C 2.8245727631 -0.998650532 -1.5298699729
C 1.7371076866 -0.3306305918 -0.8248112161
C 0.8509713605 0.2256057402 -0.2403833345
C -0.2516330606 0.883382992 0.4554077906
C -1.5910777409 0.3137603338 0.0153328846
C -3.3518535211 0.5581716029 1.6352354638
O -2.6536292977 1.0466491796 0.6701485745
H 3.751839447 -0.9337924917 -0.9589276414
H 2.5954744513 -2.0539297957 -1.6849006796
H 2.992535669 -0.5404194981 -2.5055418539
H -0.2367177214 1.9575890777 0.2557207332
H -0.1412233439 0.7551150546 1.5357435324
H -1.7402445285 0.4450052326 -1.0560306974
H -2.9821644853 -0.4925463029 1.8077673541
H -1.6860826783 -0.7432290013 0.2774210626
