15
0
O 0.0084204503 -0.7946845734 -1.424769057
C 0.4591883348 -0.2701330646 -0.5140986749
C 1.0057100126 0.3297098775 0.5353607724
C 2.4453350759 0.2374137189 0.7345521501
O 3.2141271552 -0.3556680693 0.0159321679
C -2.6887216497 0.0712748567 0.830260279
C -2.6221556626 1.1869702539 0.1220643609
H 2.8598140295 -2.7771153305 -2.3155275475
H 0.3502795213 0.8722129983 1.2000320289
H 3.0210138198 -2.2539225512 -1.8085102639
H 2.8053001902 0.7723197219 1.6329982928
H -2.777653806 0.0871025294 1.9107205076
H -2.6673468627 -0.9041597328 0.3572179627
H -2.5436101342 1.1702257595 -0.959383607
H -2.6543174745 2.1627526056 0.593493628
