14
0
O 0.6625659146 0.2805585571 -0.9346155123
C 0.3557952525 1.1807690556 0.0565341784
C -0.7916325871 0.3721179697 0.5990106541
C -0.4387149838 -0.5888031256 -0.5494345054
C 0.0258980202 -1.9777808392 -0.2024558622
C 0.9507259569 2.3308571606 0.3144597198
H -0.6348332799 -0.0345949555 1.5979815017
H -1.7685612858 0.8488013943 0.5441251506
H -0.8203206494 -2.5851790532 0.1263564271
H -1.179887894 -0.608548384 -1.3526789929
H 0.4748827019 -2.4584517425 -1.072909165
H 0.7677809015 -1.9476113901 0.5976357617
H 0.6036995166 2.9450685213 1.1325987718
H 1.7856934159 2.6706618314 -0.2829891275
