17
0
C -2.7366687343 -0.1381788504 -0.9741399664
C -1.6525939613 0.3435605085 -0.0629174717
C 0.7188808962 0.8250503446 0.5716617504
C -0.3594213124 0.3466906929 -0.3544432706
C 1.6730236935 -0.2870688835 0.9990666106
C 2.5767165245 -0.8030839528 -0.0858749438
O 2.6456689763 -0.3556573225 -1.1980092677
H -3.3011501913 -0.9536688345 -0.5140666771
H -2.329293195 -0.4977014379 -1.9199971347
H -3.4519401239 0.6595245813 -1.1910870661
H -1.9711739217 0.7205296702 0.9081909097
H 1.298634223 1.6119595243 0.0806443581
H 0.2660203922 1.2645859384 1.4634481836
H -0.0291197621 -0.0217631785 -1.3228986963
H 1.1272085084 -1.1449591104 1.4085584867
H 2.3342094234 0.0471775717 1.8085799421
H 3.223264564 -1.6556372616 0.2124552533
