12
0
C 0.9068148624 0.3406485418 -0.463738841
C 0.8784658497 -0.8714504635 0.0102853191
C 0.8397671929 -2.0815067919 0.4830184752
C -1.4275914527 0.8311851811 0.355695716
C -0.2859748941 1.2595078591 -0.5302581852
O -2.573998749 0.7946041455 0.0067856505
H 1.8468117165 0.7199983166 -0.8533863985
H 1.041282027 -2.2824567318 1.5288666497
H 0.6059454108 -2.9226661956 -0.1592906382
H -1.1415978115 0.5612175818 1.3931715722
H -0.6539055604 1.3619236658 -1.5534161806
H 0.0163664085 2.2593538911 -0.1952401391
