15
0
N -2.2564102741 -0.7978572795 0.0935991031
C -0.8452223368 -0.4444869217 -0.0078930717
C -0.2696078544 -0.9313979703 -1.3328225563
C 2.2603945434 0.9537467775 0.5483451979
O 2.801831577 1.5878871624 1.5467360324
C -0.7161899408 1.0193174231 0.0976395935
N -0.6116739447 2.1579257846 0.196446216
H -2.3633078512 -1.8002985523 0.0144895522
H -2.6450221969 -0.5109308753 0.9817945796
H -0.2231161594 -0.8467351745 0.8029765124
H -0.811176526 -0.4880566677 -2.1681709623
H -0.3648997096 -2.0174899032 -1.3908966811
H 2.3373657991 1.6837321129 -0.2853084364
H 0.7870625749 -0.6754330836 -1.3993005003
H 2.7743852994 1.0254211676 2.3301834208
