15
0
C 2.0507891494 -0.9860487902 -0.4095699076
O 1.9225874311 0.4172548866 -0.4010263664
C -1.2172173006 0.9504005668 0.3756781255
C -1.5507771117 0.1732169597 -0.8566890275
C -0.8980068537 0.4228401974 1.5501423678
H 2.3338939144 -1.3824561446 0.5724804839
H 2.8399382336 -1.2359994448 -1.1185139003
H 1.1292534106 -1.4839015371 -0.7355397253
H -1.2359191169 2.0337553481 0.2780656
H -1.5592873044 -0.9002720914 -0.6624276684
H -0.8206861443 0.3770032923 -1.6444880533
H -2.5307464857 0.4623610202 -1.24334469
H -0.8701997253 -0.6523309858 1.6988109749
H -0.6646786622 1.0447667793 2.4058957008
H 1.1973575657 0.6471889433 0.187902086
