14
0
O -0.3177704215 -1.3145233971 0.661292859
C -0.7608563329 -0.6554993017 -0.5326587059
C -1.2803210213 0.7605136349 -0.2541275125
N 0.068939955 1.2947834472 -0.5486463311
C 0.6265068457 -0.0371654506 -0.7649514769
C 1.0272707175 -0.8428250702 0.4901895606
O 1.5258012084 -0.1872617797 1.5942293284
H 0.8713936214 0.4539168302 1.887162039
H -1.2961720418 -1.315830831 -1.2106961734
H -1.6455393232 0.8792868261 0.7696190218
H -2.0320438011 1.1365078957 -0.9520546562
H 0.5194699122 1.881630546 0.1398119091
H 1.251522697 -0.1514592998 -1.6490618986
H 1.7163469846 -1.6674930502 0.2902150367
