11
0
C 1.9234702626 0.2661027876 0.0701268363
C 0.8530639107 -0.7859583926 0.0815497319
N -0.3226561104 -0.3819571733 0.7710838061
C -1.3761037683 -0.0578435038 0.2651320846
C -2.5316753943 0.3052684373 -0.2151478767
O 0.9620040314 -1.8891410622 -0.3659888007
H 2.1533563661 0.5644158949 1.0938198079
H 1.5636577062 1.1523278082 -0.4561863473
H 2.8128274303 -0.1243455388 -0.4173493513
H -2.741023563 1.349064267 -0.3985816734
H -3.2789178711 -0.4427565245 -0.4368532174
