16
0
C -2.2136065236 -0.7904121167 1.3400810789
C -1.0062246822 -0.2602704358 0.6340023525
C 2.340243026 1.421026973 -0.2439530032
C 1.1882818988 1.0730872596 -0.7952963552
C 0.7883350998 -0.3279977218 -1.1392223755
C -0.4325802326 -0.831059969 -0.4154811312
H -1.9952907693 -0.9896364662 2.3926367366
H -3.0312871632 -0.0650099101 1.3182989953
H -2.5697730814 -1.7161717396 0.885487245
H -0.5799833525 0.6583283528 1.0313258143
H 2.5757121654 2.4561081991 -0.0276077449
H 3.0926209646 0.681187633 0.009617016
H 0.4573138879 1.8445915257 -1.0276768651
H 1.6256347473 -1.0088484752 -0.9514558134
H 0.5945827919 -0.3856769955 -2.2169294206
H -0.8547987768 -1.7559881134 -0.8044195297
