14
0
C -1.2718767429 0.518546796 -0.2969396451
C -0.2850100494 1.5981727231 -0.2124935621
C 1.0733992185 1.1065542907 0.1030398072
C 1.2391562944 -0.2773870425 0.6692635974
C 0.3575824111 -1.2317156286 0.4047894752
C -0.8271399308 -0.9385904136 -0.466028903
H -1.6578448015 0.675895617 0.7367147352
H -2.1201882603 0.7809744228 -0.9322457328
H -0.5708775006 -1.1097452888 -1.518364409
H 1.6616415365 1.8586975038 0.6325093466
H 1.4745910062 1.1542396714 -0.9326521603
H 2.0923689326 -0.4698913298 1.3107821519
H 0.477378461 -2.2282588135 0.8154767242
H -1.6534925746 -1.6173645082 -0.2445464255
