13
0
C -1.5948099094 1.2646178179 0.4342707582
C -1.4216537646 0.111092341 -0.1366039407
N -1.2687354323 -0.9225868828 -0.782218407
O -0.8854644175 -2.0295635445 -0.0105794409
C 1.7436614903 -0.5370485233 0.7437661736
O 1.7797341877 0.6465891626 0.9269516065
H -2.5680487164 1.552223227 0.8088539154
H 1.0700272812 1.3798308195 -2.1960090302
H -0.7551792745 1.9370253604 0.5535568598
H -0.868531585 -2.7357192233 -0.6614971757
H 1.8437095642 -0.9744215962 -0.26657749
H 1.6012835034 -1.2530490955 1.5727560476
H 1.3950830732 1.4039121371 -1.5245918766
