13
0
O 2.3179135501 0.4578390198 -0.5374831908
C 1.0361274716 0.1343962358 -0.2823345496
C 0.4684671303 -1.035688859 0.0245607875
C -1.0200823615 -0.8099482911 0.1288497758
C -1.0972055335 0.7244342625 0.2477760489
N 0.1377622537 1.1880993477 -0.3944003738
H 0.9620355843 -1.9954084105 0.0384594043
H 2.8573521132 -0.3317829138 -0.4612167527
H -1.5438487656 -1.1579026263 -0.7694135078
H -1.4879527753 -1.2979594754 0.9857846789
H -1.9753682326 1.1493736938 -0.2383380402
H -1.1109863909 1.0122775003 1.3061869905
H 0.4972139563 2.0754855162 -0.0766002712
