14
0
C -1.9944835999 0.6425411249 -0.2101326292
O -1.1261825109 -0.2281533285 0.4807041117
C -0.3308884572 -1.0101933932 -0.3604393242
C 0.7640646775 -0.0676837801 -2.1291821908
C 0.9002995419 -0.2296365595 -0.8567752016
C 1.9364258549 0.21147327 0.126079508
H -2.7150351313 0.078002357 -0.8136262882
H -2.5294976074 1.2208001158 0.540754914
H -1.4410891503 1.3215060362 -0.8678810595
H 0.0385634963 -1.8517410386 0.2296289895
H -0.9089335862 -1.4146270586 -1.199871429
H 2.4127207498 -0.6589198889 0.5821212028
H 2.7028659492 0.8203737813 -0.3492594347
H 1.4613177736 0.7914353621 0.9184508312
