11
0
N -1.7038349264 0.1060397545 0.01151776
C -0.2445906863 0.1564062781 0.0035432273
C 0.6971919761 -0.8399430328 -0.0309484886
N 1.8471766919 -0.1439671971 -0.0183550252
N 1.6632351937 1.2034986481 0.0213657588
C 0.3411652662 1.4365467752 0.0365011479
H -2.1060963499 -0.3412371923 0.8329699102
H -2.1168340565 -0.2985710785 -0.8265467396
H 0.6710164306 -1.9182637754 -0.0616282319
H 2.7776433803 -0.5235273048 -0.0353093672
H -1.9089639196 1.1212231248 0.0393310483
