15
0
C -1.070493771 -1.2857641095 0.7125226449
N -0.0637443648 -0.7534402993 -0.2243396598
C 1.3603601175 -1.2408231577 0.1511053008
C 2.0283174049 -0.063249703 0.1589893897
C 1.1941169291 1.1034543545 -0.1190814428
C -0.058380347 0.7097010609 -0.347820813
N -1.2310397587 1.3296654263 -0.8010768501
H -2.0718157872 -0.9944319343 0.394470973
H -0.9710556734 -2.3678115622 0.7359883897
H -0.8499450138 -0.887492291 1.7011210755
H -0.2339488471 -1.1542183344 -1.1462184456
H 3.0858222993 0.0096871621 0.3741616698
H 1.5219643044 2.1347339181 -0.1437512091
H -1.8894093079 1.5537346027 -0.0671787494
H -1.0421221843 2.1567738667 -1.3452552736
