15
0
C -1.4464022276 -0.7934633719 0.3527693507
C -0.5692175331 -0.0101396483 -0.6210728719
N -0.2147273569 1.2966845625 -0.1026613945
C 0.6711410786 1.3060166156 1.0488753148
C 0.6124068974 -0.8306848998 -1.0150246367
N 1.5554360015 -1.4403662769 -1.2748041765
O 2.5361556372 -2.0775376854 -1.5562109711
H -2.3005415656 -0.176978176 0.6329386092
H -0.8971155863 -1.0667859661 1.2537053236
H -1.8044622164 -1.7118430038 -0.1122261989
H -1.1455291496 0.1618675435 -1.5334370248
H 0.1758066173 1.8592761935 -0.8448720101
H 0.9327445593 2.3382530702 1.2791146585
H 1.6005482639 0.7386745893 0.8984190307
H 0.1611155805 0.8981494537 1.9223739967
