11
0
N 1.1131283159 0.1682786151 0.8205656636
C -0.0034379264 0.7310529965 0.1707846764
C 1.0732975373 -0.0244264376 -0.6537489919
C 0.4626455531 -1.0940158948 -1.3521147431
O -1.5896074437 -0.711897068 1.194389017
C -1.3816980403 0.1841544058 0.4257104594
H 0.8102988917 -0.6855373088 1.28792347
H 0.0203666155 1.798700198 -0.0279575609
H 1.7548619336 0.6430099048 -1.1688241149
H -0.0615604471 -1.7310868348 -0.6193829776
H -2.2038479897 0.6984234237 -0.1026938978
