15
0
O -1.3473158969 2.8396184131 -1.1080794836
C -0.8785982726 1.6839414124 -0.739886996
C -0.8834278681 -1.6413807997 0.9023329642
C 0.3739464149 -1.0746273058 0.3165719838
O 0.7448324789 -1.3135344582 -0.8093696962
C 1.1941018402 -0.1450915598 1.1835670692
O 2.2233130882 0.4531358727 0.4582496294
H -2.0329685724 3.1148276427 -0.4868449063
H -0.1076951613 1.4645756614 -1.5080459092
H -1.6610299996 -0.8830285958 0.7787031283
H -1.1765554481 -2.5440830189 0.370541299
H -0.7743925305 -1.8428787175 1.9691189257
H 0.5230040815 0.6144872021 1.5995087575
H 1.586076956 -0.735766902 2.0256919526
H 2.2413538896 -0.0101648467 -0.3916407185
