13
0
C 2.1718204321 0.2447719384 0.8518000819
N 1.5011417337 -0.992846715 1.0361717669
C 0.9331475871 -1.9962821517 1.1758836932
C -1.4983554648 -0.0971648598 -0.7753192383
C -1.8781720743 0.2833954964 0.5790716828
O -0.854109417 0.9817135715 -0.1138172333
H 1.4513334853 0.9804635421 0.4972619441
H 2.9672069063 0.1189391224 0.1185470674
H 2.6014537528 0.5703474651 1.7981428243
H -0.8853163524 -0.9809825925 -0.9214930025
H -2.1311333477 0.1895213398 -1.6096837312
H -2.7900157274 0.8501959556 0.7403453251
H -1.5404975138 -0.3258021122 1.4117758196
