12
0
N -2.2148779046 -1.1266758392 -0.7506998512
C -1.6952410462 -0.1316586445 -0.5111249559
C -1.0181028066 1.1144302089 -0.1574394182
C -0.0918380018 1.0184178339 1.0543099032
C 1.1452382865 -0.8403517276 -0.1306173461
N 0.8318527469 0.1086237364 0.943482212
H -0.4480850035 1.4647036972 -1.0272224007
H -1.7814714186 1.8654765796 0.0415000497
H 0.5258218737 -1.7338423961 -0.0560931439
H 0.9819061559 -0.3830399643 -1.1051350389
H 2.1944903838 -1.119750881 -0.0513867302
H 1.4503597345 0.0406993965 1.7383897205
