16
0
N 2.8183948605 0.3077833136 -0.0177008048
C 1.6317442711 0.3039189743 -0.451003722
C 0.8412656809 -0.9672038206 -0.5206512481
C -0.4061315401 -0.9979821478 0.3703166405
C -1.539308097 -0.0688024604 -0.0532335421
C -1.4595111209 1.3487143071 0.4435465679
O -0.6067962448 1.7833515294 1.1678840355
H 3.20723509 1.2482974816 -0.0330092185
H 0.5405213511 -1.1363217264 -1.5619052397
H 1.5123136133 -1.779399861 -0.237284701
H -0.1219753692 -0.7711984074 1.4005230816
H -0.7870761973 -2.0212964638 0.3660903302
H -1.6512842251 -0.029044701 -1.1441049395
H -2.5046772232 -0.443993896 0.3088893613
H -2.2881404122 2.0046776486 0.1020795276
H 1.1317175629 1.2161872296 -0.7951231287
