13
0
C -1.1083555654 -0.5346626563 1.2058872926
C -0.4344819099 -0.8074714834 -0.1093902647
N -0.8245198253 -0.0061407002 -1.2368537775
C 0.5609432726 0.1258019463 -0.7474530206
C 0.8730072461 1.3846995005 -0.0583105515
O 2.1670841811 1.5810189233 -0.190733155
H -1.3112044401 0.5285861012 1.3146138682
H -0.4819902777 -0.8602276552 2.0388327188
H -2.0528247091 -1.0810563688 1.2538863874
H -0.2088927529 -1.8541914912 -0.301065378
H -0.8168921387 -0.5404585489 -2.0966178358
H 1.350221626 -0.3475227743 -1.3314484695
H 2.3947712934 2.3915172071 0.2754731857
