15
0
C -1.2901687289 -1.0730399394 0.0044276327
C -0.9289579272 -0.1721223396 1.1826111964
C 0.398253621 0.5420475415 1.0662320181
C 0.6961013348 1.2897872884 -0.2422719404
O 1.1941281016 0.5693631707 1.9662240533
C 1.3375269574 0.4127198605 -1.2160085097
C 1.8701207637 -0.3205278504 -1.9975314315
H -2.2585465473 -1.5435124453 0.1777791456
H -0.5489880073 -1.8614164381 -0.1310674595
H -1.3541020778 -0.5191248618 -0.9332900898
H -1.6893231476 0.6110146157 1.2916367407
H -0.9087958453 -0.7306885251 2.1185794246
H 1.3639095086 2.1169728228 0.0012704745
H -0.2249602371 1.6968840707 -0.6677567443
H 2.3507942313 -0.9677189707 -2.6923395108
