15
0
C 1.647449128 -0.9002496362 0.9487939408
C 0.624798623 -0.3281731009 0.0079197557
C 0.7568116094 -0.2800851602 -1.3297653561
C -0.6118955872 0.1718602938 0.5360390969
O -0.7784795722 0.0151708561 1.8270872105
C -1.6482874968 0.9503142362 -0.217582781
O -1.7319764908 0.9677334756 -1.5014343997
H 2.532150708 -1.214594257 0.3968547211
H 1.2493872761 -1.7639254817 1.4842987233
H 1.9477753463 -0.1660633396 1.6981507609
H -0.0511923075 0.1509179992 -1.9216462292
H 1.6569631463 -0.6648609712 -1.7982329339
H -1.6622223745 0.3293043998 2.0738157061
H -2.6030327492 0.7956627231 0.3662076073
H -1.2584602586 1.9315669629 0.2534701771
