12
0
C 1.2533631213 0.1288207808 0.2631135855
C 1.1794083866 -1.1428276055 1.0856239438
O 1.1996329691 -1.1780985333 2.2836767567
C -2.201534969 0.7583410309 -0.6758652291
O -1.0408766727 0.5805004188 -0.1388211856
C 0.0973484285 0.2566477157 -0.664258597
H 2.1687950741 0.0858706953 -0.3346603155
H 1.3358105538 0.9768270755 0.9481348204
H 1.0727287897 -2.0746343098 0.490028445
H -2.3255296129 0.6187445323 -1.7415072007
H -2.9837615811 1.0381530892 0.007236106
H 0.1352665124 0.0834681103 -1.7327881297
