12
0
O -1.0581250985 3.2917859664 -1.2879366028
C -1.1018338665 2.4253280043 -0.5760820011
C -0.4781787352 -0.9333458417 1.0090835326
C -0.369960108 -1.2799972214 -0.4387271457
N 0.7808186724 -0.8570859533 0.3065680933
C 1.4540618337 0.3187813851 0.057623111
O 1.7108087057 0.7464828922 -1.0364055381
H -0.5629091018 -1.7205317624 1.7486071934
H -0.9701484304 0.0012877528 1.2559813401
H -0.7686317105 -0.5757203557 -1.1604930053
H -0.3806061952 -2.3197381853 -0.7419615719
H 1.7973740344 0.8071783189 0.9862535943
