17
0
C 2.6905220746 -0.4546431409 1.5074028951
C 1.7819905289 0.3196460147 0.938728194
C -1.4582673665 0.1092811975 -0.8586465284
C -1.4558811603 1.5775295681 -1.1398766911
C -2.1631092248 -0.4833831855 0.0928971963
H 3.7496161568 -0.327481054 1.3135597512
H 2.4128794788 -1.2473397674 2.1929583123
H 0.9340981125 -2.3761507695 -0.3636372272
H 2.0629543873 1.1114650029 0.2530286114
H 0.7216829137 0.1917373486 1.1269475341
H -0.8189384669 -0.5015051685 -1.4919697908
H -1.7768362941 1.7791620316 -2.1650951603
H -2.1170244001 2.1171129585 -0.4604840364
H -0.4488374527 1.9912797951 -1.0383884943
H 0.6390843685 -2.9939149734 -0.6597859451
H -2.81376358 0.0831025566 0.7515423945
H -2.1148870756 -1.5544684144 0.2477909847
