16
0
C 0.5967859156 -0.1482508886 -2.0515160185
N 1.0197649385 0.5341412285 -0.8391649547
C 1.5130767886 -0.4066392593 0.1849300533
C 0.3056973134 -0.6462275636 1.0449235576
C -0.5936568657 0.2743941156 0.7284148553
O -0.185398365 1.1001091603 -0.2797885445
C -1.9350114057 0.5899485675 1.2778836828
H 1.4848763957 -0.568136585 -2.5250793075
H 0.1560108428 0.5808228693 -2.7293703191
H -0.1282155079 -0.951078157 -1.8590538763
H 1.8993411303 -1.3044659908 -0.3045346238
H 2.3367029148 0.0501129661 0.7440550851
H 0.2069391703 -1.3936652559 1.8149318554
H -2.6988498076 0.4812348956 0.5056898095
H -2.1703382825 -0.0740309498 2.1075080446
H -1.9636241755 1.6223748472 1.6312377008
