14
0
C -1.8899213171 0.4324054708 -1.1065615739
C 0.8633407294 -0.1005957819 2.0667781287
C 1.0156605626 0.9105147963 1.0879943612
N 1.4487023534 0.4186776045 -0.0656488056
C 1.0956291336 -1.0069134587 -0.0523353908
O 1.3061899586 -1.7318429688 -0.9714216487
C 0.705083981 -1.2448379183 1.3718407207
H -1.5306950963 1.4613300905 -1.0965207536
H -2.9434262401 0.4262820273 -1.3805882899
H -1.3245113119 -0.1496851376 -1.8333395587
H 0.7304641644 1.9528245096 1.1785798902
H 1.5830471267 0.9328854995 -0.9221241301
H 0.6757707678 -2.261852463 1.7397589295
H -1.7733238121 -0.0098992702 -0.1173528791
