17
0
C 2.7805156223 -0.175401712 -0.6505113265
C 0.5432721559 0.4219013777 -0.3596854567
O 1.495992188 -0.4006511822 -0.0540541951
C -0.7211212104 -0.0271961208 0.3384169884
C -1.3413903346 1.1814003375 1.0293357704
C -1.6302734667 -0.5425339577 -0.788218759
O -0.5606827777 -1.0368722076 1.322248011
H 2.7266683998 0.7142171913 -1.2751149991
H 3.032823635 -1.0558647527 -1.2396841917
H 3.5013514006 -0.048227742 0.155584513
H -0.6749817313 1.5561000166 1.8074643554
H -2.2804570354 0.8809764115 1.4968262843
H -1.5320872169 1.9800483899 0.3131859942
H -2.5795780173 -0.8509812318 -0.3482892274
H -1.1815025165 -1.4110370456 -1.2755432567
H -1.812049146 0.2239810023 -1.5414324594
H 0.2413340512 -1.5260367746 1.1205749546
