11
0
C 3.1559670641 -0.372482181 -0.3939741771
C 1.8171169694 -0.4683647832 -0.3210491758
C 0.5924043061 -0.4341078392 -0.2012310572
C -0.8453414011 -0.370193579 -0.0443473977
C -1.3950515456 0.9645909764 0.4568809301
H 3.6130713657 -1.2897653417 -0.7876066442
H -1.1453939106 1.7683930612 -0.2358089202
H -1.2948348244 -0.6467009432 -1.0049290691
H -1.1247986264 -1.186887096 0.631782118
H -2.4810603015 0.9180597447 0.5533105879
H -0.9725750958 1.2152729807 1.4299408053
