13
0
O -0.680130523 -0.718005613 1.5715583402
C 0.0792016857 -0.4808678404 0.4608169627
C -0.7390778954 -0.5140215033 -0.8018682246
C -1.7029983246 0.5827433972 -0.8856302215
C -2.485433871 1.4846023778 -0.9615612365
C 1.3669140325 -0.2676988438 0.4761040193
C 2.6487173796 -0.0401991236 0.4859449205
H -0.1291491803 -0.6353570431 2.3535513207
H 3.3698584828 -0.8472013743 0.3971477192
H -1.2758328367 -1.4666598065 -0.8387655204
H -0.0693008357 -0.4792094961 -1.6613702224
H -3.1823624513 2.2859535235 -1.0283948696
H 3.0447973375 0.9667883457 0.5778660122
