14
0
C -1.7897903751 0.1257224508 0.0402350138
N -0.3525789286 0.0002105198 0.0067557857
C 0.362294594 -1.2515342292 -0.1360360054
C 1.7927303933 -0.7779518118 -0.104464411
C 1.9397865804 0.5617936489 0.0378735611
C 0.5544695977 0.957870458 0.0987516929
O 0.1531159464 2.2032692901 0.2381882513
H -2.0547411482 1.1779852952 0.1104251104
H -2.2023198987 -0.4007263959 0.903467228
H -2.2290362009 -0.2902919019 -0.8685044721
H 0.1123278678 -1.9317440805 0.6853901932
H 2.593069024 -1.5058916035 -0.195968802
H 0.0883696602 -1.7421748062 -1.0763026732
H 0.9750228876 2.7145191661 0.2808905274
