13
0
C -0.2460552436 1.1898631578 -1.3981378818
C 0.0337392785 0.23805322 -0.2766153659
C -1.022389784 -1.1473436887 1.4192566824
N -0.9870839006 -0.2947665518 0.4116650459
C 1.3340830805 -0.1376846177 0.0868268808
C 2.4390672242 -0.4828376476 0.4249718683
H 0.1280810746 0.8137144026 -2.354377397
H 0.2150181159 2.1666161862 -1.2289410955
H -1.3214404208 1.3532054769 -1.5114367941
H -1.9857172677 -1.4288229592 1.8074316037
H -0.0965144084 -1.5311079897 1.8141802608
H -1.8935720484 0.0212784995 0.0920882975
H 3.4188182999 -0.7792204881 0.714370895
