14
0
O 1.1833875913 2.2485064501 0.1551235943
C 0.4618597623 1.1118879123 0.0715878599
C 1.3360402183 -0.1050128835 0.0482969444
C 0.5207080485 -1.3569008287 -0.0445677541
C -0.8001909855 -1.3198522851 -0.0962089925
C -1.5755293813 -0.0385249312 -0.0658509828
N -0.7936388446 1.1757148313 0.0234206767
H 1.9598492785 -0.1002443981 0.9478338559
H 2.0319490608 -0.0158331062 -0.7919395773
H 1.051520066 -2.3020408474 -0.0679214709
H -1.3726892309 -2.2394864942 -0.161628396
H -2.2751293118 -0.0536575927 0.7776940093
H -2.2068876384 0.0290101485 -0.9591455372
H 0.544295367 2.971856025 0.1658467705
