11
0
O 0.8095222388 0.4196205052 1.4494219449
C 0.3614520587 -0.0611628714 0.2376489535
C -0.6468045424 0.7122361358 -0.5543529254
C -1.043282346 -0.5426850651 0.185222801
C 2.1613388479 -1.3573138559 -1.0687942539
N 1.3354888328 -0.7815193773 -0.4828869103
H 1.4387338023 1.1283404731 1.2892907616
H -0.9574471728 1.6595468454 -0.1348179876
H -0.5799847434 0.6719634648 -1.6327701831
H -1.6080192139 -0.4325423373 1.1004529974
H -1.2455127618 -1.4338679173 -0.3917051979
