14
0
O -0.2337785337 -1.9588102053 0.37604757
C -0.2675031052 -0.8520510085 -0.5029999103
C -1.0528541498 0.3358583983 0.0746429006
C 0.0430501691 1.2227954372 0.6999288045
C 1.1132885233 -0.2365524135 -0.6730419674
O 1.2747465629 0.5375424105 0.5011891533
H 0.2709414244 -1.7003218419 1.1524953706
H -0.6889364905 -1.2225907413 -1.4371462036
H -1.586201308 0.8676983827 -0.714122778
H -1.7862219984 -0.0156688852 0.7990163334
H 1.1540358667 0.3967130236 -1.5713529798
H 0.0840983259 2.2035176711 0.2117587518
H 1.9112928767 -0.9769470554 -0.7163496871
H -0.0792021633 1.3787008277 1.771894642
