18
0
C -2.2409084614 -0.2786678387 -0.4812092136
C -1.0428343651 0.6544389221 -0.3756387884
C 0.2709610463 0.0674634971 -0.8920613292
C 0.9948851754 -0.4126285041 0.3838540118
C 2.5116810679 -0.3072113479 0.3254945827
C 0.3849648332 0.3560443554 1.5413810348
N -0.6866584297 0.9033305471 1.0387768357
H -3.1153736565 0.1403505924 0.0214807266
H -2.5044327871 -0.4437334592 -1.527305996
H -2.0181363771 -1.245696497 -0.0250688806
H -1.2817381159 1.6081279685 -0.8536886999
H -1.3123055579 1.4432907716 1.6180890631
H 0.1057008244 -0.7272367983 -1.6206268202
H 0.8648531987 0.8442362905 -1.3799358002
H 0.7342156698 -1.4594709796 0.5937503861
H 2.9164617724 -0.888471027 -0.5063124368
H 2.8198828901 0.7325086399 0.1913567009
H 2.9567022729 -0.6696991328 1.2522506231
