8
0
N -0.8013116501 0.9348362704 0.1515531981
C -1.2617929264 -0.3159030891 0.0342173946
N -0.0721524256 -0.9852923273 0.0105226955
C 0.9823319952 -0.1189248679 0.1116480066
N 0.5569920897 1.0946775567 0.201788097
H -1.3739970647 1.7570601649 0.2045756999
H -0.0055438599 -1.9829407118 -0.0716653076
H 2.0211468418 -0.4060429959 0.115816216
