19
0
C -1.4754531984 1.5528161464 0.1438328015
C -0.8109307911 0.2149211089 0.3436363495
C 0.0712516619 -2.4385102476 -0.4658013756
O 0.8938356909 -1.3349005552 -0.7237827389
C 0.5733443911 -0.0964446129 -0.1428983501
C 1.4042801905 0.94788342 -0.8351416889
C 0.3218204458 0.0188787132 1.3308428342
H -2.27158694 1.6982026754 0.877380441
H -1.918635893 1.6317116753 -0.8515299178
H -0.772124187 2.3779486681 0.2615373585
H -1.5035238197 -0.6184320142 0.3115762171
H 0.5721227889 -3.3030092727 -0.8997604958
H -0.9144040737 -2.338750466 -0.9346495823
H -0.0645612614 -2.6253722119 0.6064653125
H 2.4563088275 0.6625741339 -0.7849518987
H 1.2954360426 1.9266828951 -0.3707138701
H 1.1214323533 1.0252191361 -1.8867135357
H 0.7196246869 0.8903047869 1.8373405061
H 0.3132120851 -0.881055979 1.9324386334
