14
0
C -2.2061648031 0.2255602312 0.5816845618
C 1.1911425792 -0.6338153253 1.0712712464
C 1.0368688599 -1.2487545553 -0.284087451
O 0.8840447414 -0.1802133465 -1.2190676343
C 1.2415551421 0.980496151 -0.5704191647
O 1.2884765823 0.6349363963 0.8557232033
H -3.285777031 0.1039945839 0.5094364238
H -1.9769680054 1.2292706598 0.9372236818
H -1.7595042846 0.0745707875 -0.4011481312
H -1.8047809672 -0.5017692063 1.286614501
H 1.931157411 -1.8514966404 -0.4934391806
H 0.1624250789 -1.9013758851 -0.3233735812
H 2.2430160928 1.3348425265 -0.8370140911
H 0.4914636034 1.7609486228 -0.704074384
