17
0
C -2.1685256195 -0.68138781 1.1348195117
C -1.865296983 0.3695052974 0.1143773629
O -1.3996072253 1.4507589715 0.3615448105
C 1.0817876072 0.0584170709 -1.509815403
C 1.8706869183 0.8185215441 -0.4388161675
C 1.4048079051 -0.3028034133 0.4952320619
O 0.6077986217 -0.8989843884 -0.5450151732
H -3.2274710664 -0.9475616872 1.0829891697
H -1.5934717526 -1.5761957814 0.886106116
H -1.9199562817 -0.3342629418 2.13633402
H -2.1081013035 0.09334657 -0.9317202112
H 0.2581256244 0.6056285043 -1.9746095218
H 1.6818303855 -0.424907742 -2.286039861
H 2.9443275155 0.8940496717 -0.5984198889
H 1.4598079817 1.7954338014 -0.1951436853
H 0.7934839899 0.0106721808 1.3451624272
H 2.1848906829 -0.9885788481 0.8376024321
