14
0
C -1.6925471105 -0.4794937212 0.224053368
C -0.1751283148 0.8339201949 -0.9996466667
C 0.8877607693 1.3938450493 -0.1880095815
O 1.5610859105 0.5958627603 0.8077525653
C 1.4473427065 -0.7369061555 0.6489643468
N 0.5925293794 -1.3639118286 -0.0286068593
C -0.4445812452 -0.576396656 -0.6922899429
H -1.488664305 0.1252000951 1.1100002905
H -1.9229226276 -1.4928351693 0.5525097068
H -2.5444479776 -0.060502786 -0.3079967915
H 0.5379907173 2.3007625791 0.3130458746
H 1.6340303405 1.73732965 -0.9226417906
H 2.2180019808 -1.2657464568 1.2049197494
H -0.7573502238 -1.1133885553 -1.5905232689
