13
0
C -1.8715309789 0.266421899 -0.8571918481
O -1.5837020396 -0.3521967334 0.3888670248
C 0.506445764 -0.3531574531 1.4182591759
C -0.5837971304 0.2813744789 1.0715197644
N 2.1357303546 0.3408949238 -2.3825180406
C 2.3082890229 -0.0684808043 -1.3276650611
N 1.5840455698 -0.8943292927 1.6369702138
H -2.1679002319 1.3113978278 -0.7139320217
H -2.700262418 -0.2858096905 -1.2955707272
H -1.0042254652 0.2267827738 -1.5221522577
H -0.7265036291 1.3164543691 1.3705621532
H 2.4470144167 -0.4542037431 -0.3305348359
H 1.6369137649 -1.4240635556 2.5046384601
