14
0
C 2.5189353011 1.6329351765 0.013463003
O 1.6796452344 0.5201232517 0.2320924061
C -1.3931057376 -1.0453450052 -0.6142340822
C -2.1358343644 -1.8893776106 0.381083119
C -0.5030910018 -0.1447564953 -0.3128780294
C 0.3551172923 0.7764306195 0.0264602084
H 3.5256148527 1.3307534763 0.2956707274
H 2.2158933483 2.4863752362 0.6311844647
H 2.5148139765 1.9344393671 -1.0392929109
H -1.6219472135 -1.2147490201 -1.665131969
H -3.2138964587 -1.7410946675 0.2803937549
H -1.9377806765 -2.9497303906 0.2062208288
H -1.843891875 -1.6450167841 1.4014471775
H 0.0378073222 1.8042458459 0.1968503017
