13
0
N 1.7191345472 -0.4285773558 1.7018303266
C 0.9391238977 -0.4322298835 0.7318064254
C 0.7707248773 0.1617593584 -0.6149726052
C -0.4442744073 1.0471999859 -0.6756355898
C 0.4526472797 -1.2731683537 1.8025547859
C -1.4968659125 0.815674188 -1.4418217496
H 0.6724927046 -0.6483856698 -1.341803365
H 1.6744888152 0.729446661 -0.8522404782
H -0.4245714804 1.9245741938 -0.0350689411
H -0.3144219522 -0.9174790842 2.4837557155
H 0.5843668749 -2.3505210472 1.7630164282
H -1.547739982 -0.0536781425 -2.0889333912
H -2.3467442621 1.4866461495 -1.4514205616
