11
0
O 0.6546899366 1.3778190877 1.3312887581
C 0.7394367824 0.6880685488 0.2557757223
C 1.1811511969 -0.8613149534 0.2584749907
O -0.1358450204 -1.2186705485 -0.3600813358
C -0.5546215498 0.0018210636 -0.2373454178
N -1.8027567463 0.3560541193 -0.321105357
H -2.0196000232 1.3128639296 -0.0892192592
H 1.2214897215 1.1442411472 -0.6512000397
H 1.9898025135 -1.2125786009 -0.3793510399
H 1.2062604892 -1.2774030093 1.2619015542
H -2.5492163004 -0.3110787842 -0.4337245758
