17
0
C -2.135663067 -0.3013466483 0.3360537566
C -0.7080403102 -0.0911774051 0.7702635762
O -0.0529302234 -1.3143840668 1.132332605
C 0.9707838653 -1.1309460807 0.1600347876
C 0.7556453651 -1.5648032442 -1.16339424
C 0.3128907436 0.256630747 -0.332169596
C 1.2084901562 1.4657094836 -0.1879239264
H -2.5897312382 0.6504584468 0.0490988166
H -2.1733475815 -0.9905108709 -0.5086145227
H -2.7151604951 -0.7271966572 1.1563011812
H -0.6482123178 0.6242200663 1.5994564703
H 1.9568216471 -1.0214248169 0.616743553
H 1.6533278884 -1.2415728659 -1.7208280238
H -0.1473097102 0.2172893908 -1.3271119538
H 0.6437869538 2.3766589113 -0.3975791515
H 1.6182533794 1.5402213259 0.8204146655
H 2.0396309445 1.4214402842 -0.8935839977
