15
0
O 2.5977296222 0.8104211778 0.5644082263
C 1.8821509159 -0.2839262708 0.054548158
C 0.5766431518 -0.463066722 0.8215798386
O -0.2465782769 0.7222663105 0.7367938751
C -1.2702838429 -0.144893027 0.1984979631
C -1.9080587914 0.3498208753 -1.0804704055
C -0.4217179171 -1.3712828145 0.1892657623
H 2.0229472477 1.5798123118 0.5165249792
H 1.6691021449 -0.1567831849 -1.0138692425
H 2.4956159572 -1.1765524242 0.1772877039
H 0.7938475641 -0.737958423 1.8624111368
H -2.0434090193 -0.3407959238 0.9636680896
H -2.3943755981 1.3091529773 -0.9025130639
H -2.6495294255 -0.3714394785 -1.4238424462
H -1.1563317324 0.482047616 -1.8584755747
