10
0
C -1.7989618001 -0.0291402803 -0.1536099566
C -0.471589327 -0.0308096774 -0.2451947489
N 0.4935234218 0.0613498888 0.7471732747
C 1.705512667 0.0293421293 0.1285528461
N 1.6171184123 -0.0881220898 -1.1384819184
O 0.2344422321 -0.1322538119 -1.4061812442
H -2.2806661024 0.0478414939 0.8087159852
H -2.3986848132 -0.106707387 -1.0459922714
H 0.3130809593 0.1967787899 1.7221875844
H 2.6494673502 0.0887059444 0.646828449
