17
0
C 2.2042111069 0.8670898605 0.5544253875
O 0.9898110391 0.2046094328 0.7752259879
C -0.247905405 -1.7827456611 -1.0146719044
C -1.4574086805 -1.1081433059 -0.4520698757
C -1.3689250759 0.0986243603 0.4704962945
C -0.1187009324 0.9313432538 0.2989330496
C -0.9301379739 -1.086733169 -1.8563610021
H 2.2286978839 1.8411499636 1.0617465688
H 2.3831011365 1.0302933014 -0.5169590978
H 3.0008947285 0.2411125085 0.9549046316
H 0.605128613 -2.3981586171 -0.7920849964
H -2.3331483152 -1.7259467712 -0.2436704115
H -2.2384098436 0.7437298259 0.3043325848
H -1.4207107928 -0.2347948682 1.5115271372
H 0.0311417382 1.1847666989 -0.7624684112
H -0.2081587189 1.8781291721 0.8507462325
H -1.0542575075 -0.7073559853 -2.8557521755
