15
0
C 1.8247213005 0.5209092426 -0.6384581518
O 1.1063995351 0.152173193 0.524761558
C 0.6755240068 -1.1300324719 0.5633838761
C -0.0982180655 -1.5896586462 1.5343185372
C -2.2401463132 0.9520284789 -0.5332083777
N -1.5075036218 1.8844945057 -0.1041832991
H 1.1967307753 0.4432375512 -1.5308566386
H 2.7173325259 -0.0997210673 -0.7601632687
H 2.1238417651 1.5580999008 -0.5057376039
H -0.4206939136 -0.9528207129 2.3480879957
H 1.0106646891 -1.7607237949 -0.2577050661
H -0.4060539761 -2.6247662195 1.5278608444
H -2.0720502589 -0.1083591926 -0.3173197196
H -3.099197285 1.1977731287 -1.1599188415
H -0.745117164 1.5059491047 0.4589331558
