12
0
C -0.8031014996 0.2336526189 0.4557796042
C -1.000093013 -1.3161408627 0.0911607192
C 0.3583539214 -1.055432875 0.5056630241
C 0.6507758801 0.1621103473 -0.2274091902
C 1.755633295 1.032619719 0.2834354436
O 2.3471056925 1.8234069993 -0.3980665735
H -0.8995844328 0.5718078802 1.4779643703
H 0.4888723324 0.2699386326 -1.3040235361
H -1.4224635508 0.7985582837 -0.2304428868
H -1.2981251925 -1.332291753 -0.9610766114
H -1.6124429246 -1.9522512833 0.7226365352
H 1.9945434921 0.882388293 1.3550951013
