12
0
C -1.6312961032 -0.3818058776 0.0431835141
C -0.1614504359 -0.4083902077 -0.0180746191
C 0.9158516489 -1.1807516002 -0.1080982821
C 1.8355600121 0.0058506189 -0.0903895026
N 0.7982639742 0.8185275186 0.0016395652
N 0.6007581926 2.066175076 0.0805339548
H -1.9968873006 0.08216784 0.9636594207
H -2.0689670937 0.152703921 -0.8048311599
H -2.0031641753 -1.4066208773 0.0176755531
H 1.0617631069 -2.247092097 -0.1726203109
H 2.8837520332 0.2422629285 -0.1169080496
H -0.4064588592 2.2052187569 0.1349649162
