12
0
N 2.6929572622 0.7159318545 1.3667019472
C 3.7549974053 0.8895906027 1.8038507823
C -0.0357733407 -0.6974896884 -0.7154783957
C -1.4736721003 -0.7828601857 -1.0911019581
N -2.1125650394 0.1748405271 -0.215907531
C -1.1687275533 0.6614525318 0.4821275086
N 0.1377780835 0.1601442161 0.2179361552
H 0.7843241048 -1.2615500465 -1.1450853841
H -1.6473180144 -0.5288120673 -2.1417779777
H -1.8860233038 -1.7857604263 -0.9397127408
H -1.3071425927 1.416162649 1.2459142739
H 1.7572730887 0.5520610329 0.9757483202
