13
0
C 0.4440462137 -1.3935352782 0.6827324251
C -0.6378357793 -0.9642756859 -0.2873190674
O -1.4087328024 0.1264454799 0.2206186981
C -0.9095072767 1.3692906414 0.0756451345
N 0.1820240863 1.6546281825 -0.4731816084
C 1.1731317663 1.9378828617 -1.1806029953
H 0.0093375493 -1.6597891907 1.6469144338
H 0.9661904716 -2.266662536 0.2874818993
H -0.2205412816 -0.6967411766 -1.2609218429
H -1.3639366757 -1.7624061673 -0.4383891033
H -1.5488871997 2.1365274578 0.4914519011
H 2.0866651195 1.978497957 -0.5611157808
H 1.1787398087 -0.6031605453 0.8400679061
