12
0
O -1.9970302634 -0.4457467588 -0.3001728735
C -1.3591266982 0.1847513222 0.6339801704
C -0.0082822725 0.4491987711 0.6199570685
N 0.7437682581 0.0426494988 -0.4315162208
N 1.9051640504 0.4791048866 -0.0635722742
C 1.9635456944 1.160187046 1.1883923341
N 0.6874294413 1.1097531393 1.5866215144
H -1.3800207943 -0.7079059592 -1.0076627664
H -0.9690448921 -1.8383271665 -2.7617650515
H -1.9773706242 0.507538108 1.4649850979
H 2.6964542722 0.3206892518 -0.6695758876
H -0.3320941719 -1.5531171389 -2.4926741112
