13
0
C 2.2268380852 0.0906374718 -0.4673321861
O 1.0451673371 -0.6290418286 -0.7507046803
C 0.0289011347 -0.3958569014 0.1471957705
C -1.1328900153 -1.364692016 0.0151850644
N -2.1435380155 -0.5222587795 0.0737594513
C -1.741000299 0.8500529824 0.1147914238
N -0.4928172281 0.9906087565 0.1142751235
H 2.0572752847 1.1693851592 -0.5130440078
H 2.9577808022 -0.1970068823 -1.2204678497
H 2.6110448824 -0.1706414549 0.5265217711
H 0.3652920722 -0.5430267707 1.1946968103
H -3.1087013355 -0.8133385429 0.0565209336
H -2.477974705 1.6450688064 0.1375443755
