9
0
O 1.9954000077 0.0260606884 0.7065800882
C 0.9866795117 -0.0526109511 -0.1251541271
N 0.5624260006 -0.6268928923 -1.13916312
O -1.5300787795 -1.0972687806 0.900921825
C -1.5097838443 -0.0529718431 0.3105928718
C -0.3182927574 0.4499108263 -0.4365151589
H 2.6601133759 -0.6300460509 0.4607180583
H -2.3979031761 0.6096052472 0.2882148803
H -0.4383533386 1.390931756 -0.9669563175
