12
0
O 1.8060563078 -1.2158349535 -1.2332782726
C 0.9437773306 -0.7709218328 -0.5471512377
C 0.8178763093 0.6466441507 -0.0662606831
C -0.6437126242 1.0766996648 -0.0343995003
N -1.47587485 0.1058206724 0.6518209289
C -1.1219569577 -1.0919459653 0.5845957637
O -0.0436912805 -1.6119884104 -0.0922601929
H 1.4355995208 1.2808417817 -0.6987720553
H 1.2312385074 0.6762109129 0.9471827451
H -1.0334432503 1.2038524974 -1.0500157166
H -0.7461144413 2.0399567397 0.4646479419
H -1.6826455718 -1.8912012577 1.0574822787
