11
0
N -1.9588226584 -0.1803817571 0.4044991149
C -0.9866966611 -0.8762027797 0.0474840368
O -1.8965550353 -1.6911027655 -0.4025504727
C 0.4781927502 -0.9321350788 0.0204747232
C 1.2193011458 0.1549818363 -0.6284909245
O 1.1512204476 0.0455896098 0.776469028
H -0.9945022559 2.5750975542 0.858563948
H -0.3827305128 2.2770615183 1.1643369475
H 0.8874950941 -1.9379254166 0.0402825737
H 2.1833064609 -0.0716600432 -1.07204819
H 0.667030225 0.9844643221 -1.0588797848
