17
0
C 2.0553075893 0.3109878819 0.2517593312
C 0.8108556427 -0.5254779665 0.1904651546
O 1.131703046 -1.7734296305 -0.3224344787
C -0.5557381115 0.0141159684 0.081249764
C -0.8426087543 1.4929454099 0.1400411772
C -1.6445021293 -0.7853992368 -0.585811453
O -0.037590217 -0.5483308188 1.3115292891
H 1.8474256039 1.3219965768 0.5911651519
H 2.5155188266 0.35266461 -0.7357302278
H 2.7613782632 -0.1556105677 0.9394126734
H -0.1278222633 2.0192153012 0.7684689156
H -1.8393208111 1.6601799782 0.5550080486
H -0.818152602 1.9293104726 -0.8607904436
H -2.5563334081 -0.7451835419 0.0136564344
H -1.3764397388 -1.8307352114 -0.7285958279
H -1.8663748979 -0.3628358857 -1.5676862004
H 0.4854229616 -2.4029163396 0.0053576914
