11
0
C -1.6793823318 -0.1527240097 0.3949464668
C -0.3981697768 -0.6089925855 0.3638773179
O 0.1324026932 -1.6868499887 0.7417627102
C 0.6203522458 0.3423543047 -0.2356104939
O 0.3961895347 1.5293173969 -0.7294908872
N 1.8249547953 -0.1236359894 -0.2338894302
H -0.5497240679 1.7141340631 -0.6585043976
H -2.4671957461 -0.7682830104 0.8040534984
H -1.9781295021 0.8238678386 0.0308307824
H 1.8218030056 -1.066451828 0.1848561278
H 2.6242601501 0.3654608082 -0.5951126947
