11
0
C 2.8471017463 -0.563149403 -0.304989115
C 1.7272857823 -0.1547754675 -0.1861876173
C 0.3798928707 0.3568009158 -0.0406227603
C -0.6707526838 -0.6603790928 0.0438379088
C -1.942346749 -0.3170302507 0.0791537496
N -3.1070248554 -0.016738417 -0.0029284493
N 0.1112894273 1.6012888069 0.0127021002
H 3.8443836821 -0.9210900797 -0.4113841434
H -0.415776388 -1.7099497692 0.0826782899
H -3.6171017503 0.1949055808 0.8479332858
H 0.9572619176 2.1566531765 -0.073891249
