14
0
C 1.3913227787 -1.5841403713 -0.3512901303
C 0.3749765429 -1.0538850195 0.3139089151
O 1.0874861283 2.3300218797 0.0247067443
C -0.6259377561 -0.174845854 -0.3656270483
O -0.4975363505 0.1485839494 -1.5253324228
C -1.7758185691 0.2983965167 0.4771354947
H 1.5091304616 -1.3871534267 -1.4113831814
H 2.1179625127 -2.2243031613 0.1331828413
H 1.7426622163 1.6297133841 0.0418631985
H 0.2342267066 -1.2454337296 1.3727086581
H 0.6015641111 2.1783717421 -0.7903238756
H -2.2604046928 -0.5440557865 0.9754898895
H -2.4938071875 0.8396054341 -0.1342179526
H -1.3848979023 0.9619474426 1.2534358695
