13
0
O 1.492826947 1.3510118889 -0.4839102674
C 0.7647178749 0.7891179508 0.6212598226
C 1.4827227788 -0.0449205407 -0.3252581052
O 0.6301063577 -0.748040357 -1.1592925798
C -0.6891846763 -0.357616665 -0.8324215422
C -1.2112281467 -0.7980084917 0.4961673653
C -0.6859411211 0.6069422882 0.3087503775
H 1.1191611384 1.0536418432 1.6113862675
H 2.4379764117 -0.5331680288 -0.1825693526
H -1.330250012 -0.2544013604 -1.6953262787
H -0.6115099337 -1.5011137707 1.0608105794
H -2.2811999567 -0.9146950659 0.6046731382
H -1.357198662 1.4544543089 0.3472755753
