12
0
N 0.6891937394 1.428502418 -0.2756362535
C 1.3333551408 0.5269978085 -0.7763515974
C 0.9244325578 -0.907295245 -0.669211988
N -0.2874043589 -1.131282323 0.0932360284
C -1.2693912215 -1.6322045307 -0.5108420462
C 0.0973965069 2.4416635647 0.1994029458
H 0.8694432889 -1.3068132353 -1.6925079208
H 1.7506895365 -1.425902533 -0.1757784704
H -2.2003116887 -1.7978042752 0.0285692689
H -1.2419545137 -1.9176532113 -1.5711406358
H -0.6499684114 2.9509353853 -0.3948346455
H 0.3493804241 2.7874751767 1.1932453145
