14
0
C 2.2340966092 0.7052549761 -0.3589750276
O 1.6756966087 -0.6064805131 -0.2090756862
C 0.41723033 -0.8499522896 -0.0110031834
C -2.0184248206 -0.7175144487 0.3404765579
C -0.6855362346 -0.0213206324 0.1098453789
C -0.5159447403 1.3665939963 0.0185995361
H 1.7733700848 1.2155693158 -1.2014128923
H 3.2964679674 0.5268277507 -0.5138769627
H 2.0399435291 1.3006720925 0.5299211833
H 0.2785629876 -1.9287670617 0.0631484272
H -2.7214078414 -0.4698928996 -0.4568119318
H -1.9329698023 -1.806803568 0.379121548
H -2.4610962232 -0.3872486124 1.2819088513
H -1.5108064544 1.8339348941 0.1397582013
