19
0
C -2.4294155151 1.1991619592 -0.207626568
C -0.3670291056 -1.5951962112 1.0575109851
C -0.3292693836 -1.8253855914 -0.3873755858
O 0.4793995185 -0.8747523303 -1.0632879824
C 1.4017338766 -0.3770757397 -0.103829685
C 1.8167359752 1.0272782588 -0.4748410215
C 0.6344831425 -0.5251163149 1.2166656804
H -3.3321014775 1.4460654427 -0.7642223596
H -1.6667966912 0.8327891595 -0.8947756458
H -2.0647947587 2.0929891732 0.2982102027
H -2.6604033985 0.431837831 0.5313732282
H 0.1310262113 -2.8395891518 -0.4063733834
H -1.2985938092 -1.9173925577 -0.8794206427
H 2.2872714375 -1.0315609653 -0.0806046962
H 2.2959809202 1.0420052287 -1.4540681467
H 2.5237356366 1.4208191552 0.2580968977
H 0.9438921927 1.6824266718 -0.5076535306
H -0.0683696997 0.3253158386 1.3316940169
H 1.2182499279 -0.5554088566 2.1361832368
