14
0
C 0.8412924244 0.8195152713 0.4082643473
C 1.1815794632 -0.6411532705 0.4889446772
C -0.3427983313 1.0111123346 -0.53639213
C -1.3863676001 -0.0600110941 -0.2732935796
O -0.8711984684 -1.3684810417 -0.4869931591
C 0.3624777279 -1.5816653822 0.0300863208
H 1.7055081181 1.3856979977 0.0514174893
H 0.6055748275 1.2166896283 1.4016464492
H 2.1354261758 -0.9523520734 0.8947065599
H -0.0092733968 0.9267671556 -1.5743016446
H -0.7959078869 1.9976717416 -0.4179829842
H -2.2435047183 0.0328040065 -0.9396585058
H -1.7427752413 0.0058409672 0.7625927715
H 0.6160459066 -2.6348972406 0.021652388
