11
0
C -1.9894880041 0.0415296066 -0.0010217208
C 0.4413084996 -0.035226373 0.4870376959
C -0.7149037821 0.5490261836 0.6133074339
O 3.2557072156 0.5332828587 -0.5035478262
C 2.5264258969 -0.4112436235 -0.5172827235
N 1.5018834168 -0.6313210637 0.417174147
H -2.7402445899 -0.1445128972 0.7693706548
H -1.8258895588 -0.8885591488 -0.5442421762
H -2.4021052517 0.7737333619 -0.6978553364
H -0.727002959 1.4626792251 1.1968974272
H 2.6349721167 -1.2543171296 -1.2183115757
