15
0
C 1.7863992291 -0.1332332195 -0.0416584748
C 0.5087865077 -0.0775384117 -0.8795691113
C -0.7439740583 -0.2373847977 -0.0619708161
N -1.3612122564 0.9522545152 0.3673220661
O -0.4467151683 1.8787050632 0.9192517412
C -1.3092206403 -1.4178992683 0.182678172
H 1.8038373227 0.6665848953 0.6979529388
H 1.8536344949 -1.0855311457 0.4871889405
H 2.6677680366 -0.0359917012 -0.6785964797
H 0.4619931422 0.8674176337 -1.4259366471
H 0.5294839318 -0.8751084802 -1.6247515973
H -0.5776183218 2.6703226318 0.3927343138
H -0.9247378277 -2.3186293906 -0.2755629743
H -2.183446659 -1.5143674627 0.8161447078
H -2.0490527332 0.7672801384 1.0868062207
