14
0
C -2.2985864015 -0.0661221546 -0.3958792796
C -0.8929619575 -0.4309718427 0.0486598954
C -0.6984005473 -1.7127443389 0.0040175219
C 2.1964996418 -0.0496291486 -0.1668828503
N 3.3360898697 -0.5421699863 -0.0142214664
O 1.3239642414 0.1905915959 0.8440078567
C 0.0451896826 0.6589577071 0.4721261089
H -2.8170610398 0.4514314885 0.4133182821
H -2.2543465686 0.582447968 -1.2725348718
H -2.8780882794 -0.9521771865 -0.6574507957
H 1.8337025171 0.2364459531 -1.1565058234
H 3.5151149502 -0.7619349337 0.9644076482
H -0.3625334898 1.1660717734 1.3485181703
H 0.1251093815 1.4002801054 -0.3329193964
