15
0
C -2.0964170471 0.3516478078 0.672818442
C -1.2227271089 -0.3756992894 -0.3477302398
C 0.178917912 0.1210667064 -0.3595099853
O 1.1313623639 -0.7408829434 -0.4296490278
C 2.4219129002 -0.5285039356 -0.4434216807
H -2.1026507287 1.4283073631 0.4883302417
H -3.1287431198 0.0012684269 0.6217384509
H -1.7266184105 0.1897832775 1.6866246124
H -1.6736787135 -0.2656428543 -1.3433887488
H -1.2008296428 -1.4471215922 -0.1359854259
H 1.2296385168 0.5875432291 1.7070094252
H 0.4325102764 1.1688663851 -0.4916663993
H 2.7851584546 0.4656628243 -0.6657189469
H 1.9441915129 0.3435460493 1.5926219008
H 3.0153548343 -1.4208674545 -0.5420006184
