12
0
C 1.871490266 2.5759192147 -1.070457609
C 1.1472185516 1.7366194242 -0.6002380248
C 0.3008655156 0.7611946934 -0.0479002782
N 0.3260343798 -0.4780721511 -0.5283017857
C -0.3662062638 -1.5625566337 -0.1751740599
C -1.2990101537 -1.4971706678 0.8662113355
C -2.0908071142 -1.3976022224 1.768475267
H 2.5106740144 3.3206732757 -1.4810829182
H -0.3807808012 0.9734852842 0.7610501616
H 0.980934083 -0.6183111713 -1.2872393825
H -0.1701874275 -2.4691170474 -0.7229145596
H -2.7934000499 -1.3221009986 2.5639688535
