9
0
O -1.8925893267 0.1296528904 -0.0020296462
C -0.5784980541 0.5691058584 -0.0920138882
C 0.3978654882 -0.5612844911 0.0913890878
O 0.0809319967 -1.6949637728 0.2827618161
C 2.8502364616 0.2035487629 -0.0491293062
N 1.7445256182 -0.1731496178 0.0176292517
H -1.8777859784 -0.8230513206 0.1478109897
H -0.3743010307 1.0281447604 -1.0682334965
H -0.3569871749 1.3272569302 0.6700251919
