12
0
N -1.6427183271 -0.9415523314 -1.1885054211
C -0.7174848533 -0.2385243278 -0.7420591348
C -0.4767575856 0.877381781 0.1994973965
C 0.4124835033 0.4554785637 1.3390417553
C -0.2267553305 -1.2246015766 -1.6790861908
N 1.4950329716 1.0574508544 1.5723081452
H 0.0082256318 1.7039820591 -0.3223876624
H -1.442044519 1.2143346912 0.5885800305
H 0.0507019363 -0.3901029855 1.9359314041
H -0.0048313799 -0.9500790353 -2.7058310825
H 0.2313173674 -2.1439484413 -1.3271410348
H 1.9686555849 0.6583627484 2.3800717951
