13
0
N 2.2287967275 -0.115147529 0.4485486852
C 0.8842194306 -0.0823282028 0.1578775175
O 0.3844942503 1.1792884965 0.0993751012
C -0.0139185697 -1.0491940971 -0.0419132133
C -1.3453774479 -0.4061637354 -0.3319064555
C -1.0475370508 1.0541308994 0.040438696
H 2.7035380267 -0.9481287286 0.1467749011
H 2.7153639686 0.7310514576 0.2026596869
H 0.1922758923 -2.10710517 -0.0587968146
H -1.63777032 -0.5086371625 -1.3829947971
H -2.165864306 -0.8012506323 0.2711555712
H -1.4411272442 1.3033515947 1.0295362104
H -1.4131393571 1.7829428096 -0.6817240892
