13
0
C -1.7522595724 -0.2517322389 0.1204600302
N -1.6947376425 1.0289557702 0.6410016583
C -0.5738011279 0.7523955923 -0.2886975423
C 0.6136098891 0.4118941669 0.2736323056
C 2.0212298379 0.1852716849 0.3243605423
O 1.0968859714 -0.0360513585 1.4421382014
H -1.5071626277 -1.0358718791 0.8546269179
H -0.853785906 -1.7198417766 -1.8962137651
H -1.3996985717 1.1259309212 1.6167013399
H -0.5969645639 1.1911704518 -1.2734439784
H -0.3983335152 -2.1349540621 -2.3211080326
H 2.4383810267 -0.7253103025 -0.0917283007
H 2.7038988021 1.0157510306 0.4696006235
