17
0
C 1.7159263781 -0.2282279217 -1.2878236826
O 0.5480589406 -0.9260720967 -0.9178169799
C 0.6339365568 -1.4509171381 0.3849568881
C 0.1018650348 -0.6833137292 1.5354559316
C -0.6131691251 -1.680327611 1.1242769437
C -1.1395941947 1.3273195277 -0.9243427592
O -0.5574224158 2.1452981727 -0.2683059078
H 2.6044941861 -0.8647836624 -1.2002263451
H 1.8574453116 0.6675183926 -0.6721108392
H 1.6028758644 0.0705466861 -2.3296082779
H 1.4976310932 -2.1111471071 0.4885970905
H 0.2247952676 0.1570066182 2.1957758157
H -2.4427329603 1.764488711 2.3756159863
H -1.5073482047 -2.2741736155 1.2030806145
H -0.9545224749 1.2053214223 -2.0062720023
H -1.9003558492 0.6578003424 -0.4854785377
H -1.9303014084 1.9453000087 1.8631040615
