16
0
C -0.907311806 0.1958787462 -1.1530159602
C -0.0542749975 -0.6134960638 -0.2159187727
C -0.6955062267 -1.5462626448 0.7179123452
O -0.0652388906 -2.024651081 -0.4526848546
C 1.2860381678 -0.0901638816 0.1505616622
C 1.7494355954 1.1150383775 -0.1437889982
H -1.1699244579 1.1577042658 -0.7086530388
H -1.8265629412 -0.3444217411 -1.3760349679
H -0.380092847 0.3793869667 -2.090819487
H -1.1398405324 1.6084726893 2.3985981849
H -1.7803213507 -1.6157628262 0.730114299
H -0.2021302126 -1.8014908758 1.6522798456
H 1.9046666954 -0.7888258376 0.7069111304
H 1.1663807802 1.8374391565 -0.703077635
H 2.7389573816 1.4236580875 0.1685709784
H -0.5147753579 1.3461996627 2.0875472687
