11
0
N 2.9435705633 -0.6281475536 0.0703229082
C 1.9276285566 -0.0984616817 0.0488013486
C 0.6172012539 0.5713048576 -0.0452508672
C -0.4020726655 -0.3825073686 -0.6287583568
C -1.4486529116 -0.8381101822 0.0351693176
O 0.2966321138 1.0578081109 1.231839729
H 0.7569146973 1.3995159022 -0.7545043614
H -0.4922322719 1.5998319444 1.1531916846
H -0.2194207474 -0.6733094754 -1.6586158033
H -2.1556482535 -1.5088461156 -0.435306567
H -1.6238233351 -0.5737944379 1.0711339678
