10
0
O -0.596253727 2.3485267599 0.1386245398
C -0.2564657344 1.2112844004 0.1616105518
C -1.0091080106 -0.1286642356 0.0103016427
C 0.3527220835 -0.7569930883 0.204226438
O 1.0653181163 -0.4008560486 -1.0103083157
C 1.0973609136 0.519180827 0.5388717773
H -1.553370706 -0.3454178452 -0.9090722434
H -1.6614875831 -0.2778962612 0.873111462
H 0.5518356908 -1.7595005955 0.5664743443
H 1.995871957 -0.6450919128 -0.910572197
