8
0
O -0.45233601 0.3241568752 0.8514235648
C -1.0085657907 -0.3198416953 -0.1672691928
C -0.4184710648 -0.6825194144 -1.3069677591
C 0.0650414969 -1.0603094334 -2.4129504872
C 0.9014542499 0.6820360958 0.787611728
O 1.3831140602 1.2618344637 1.689776073
H -2.0544158148 -0.5306910555 0.0397578174
H 1.3791568734 0.3602511639 -0.145224744
