15
0
C -2.6453317983 -0.2617626014 -0.280024336
C -2.3188642397 -1.3355208974 0.4249172055
O 0.2746642612 0.9260563125 1.1851861888
C 1.0077365049 0.5433466696 0.3148190644
O 0.6338768661 -0.2976314279 -0.6572509504
C 2.4744288995 0.9087129081 0.2265766534
O 3.0730120869 0.6829161955 -1.0179509231
H -2.3833619485 0.7332463485 0.0630204575
H -0.3066991008 -0.5166146641 -0.5295268813
H -3.1898017608 -0.3368859715 -1.2145639949
H -2.5838285955 -2.3347827937 0.0979483444
H -1.7842835434 -1.2474028739 1.3645715445
H 2.56267011 1.9691283405 0.4623542341
H 2.9732327882 0.3540462688 1.0342591053
H 2.7259534702 -0.1356088139 -1.3807087123
