14
0
O 1.6965415609 2.4981460073 -0.5785125803
C 0.6494366097 -0.4629767858 -0.2604498026
C -0.0852466863 -1.7560028272 0.1785159144
C -1.3844870037 -0.9485707849 0.4388819154
C -0.5933650132 0.3152926014 0.1393514101
O -0.8473869145 1.4838698639 0.2286411116
H 1.8529191212 3.4421130467 -0.559616115
H 1.5548793113 -0.1761442473 0.2741773527
H 0.8534289455 -0.3813963344 -1.3295930283
H 0.3307043302 -2.2015694742 1.0803482393
H -0.1681565202 -2.5253290379 -0.5863273424
H -2.1788253523 -1.1146586519 -0.2913823692
H -1.8171428739 -0.9913732585 1.4387694749
H 0.7782494849 2.3780698827 -0.2949511807
