15
0
C -1.6831347056 -0.8078078944 0.0515772721
C -0.9349935716 0.3606512643 -0.5296928392
O -1.4882678155 1.1761446666 -1.2356561646
C 1.0930233031 0.2605125015 1.0928263624
C 1.401261316 -0.6730107533 -0.0348284857
C 0.5259030069 0.5239903908 -0.2799481451
O 1.078089195 1.5717026982 -0.9951761285
H -2.736326521 -0.5489128548 0.1352658947
H -1.5920325363 -1.6500486147 -0.6388964304
H -1.2985920051 -1.127747945 1.0189069653
H 0.3285903427 1.9985559528 -1.4348973543
H 1.8632387756 0.9596999827 1.3877551406
H 0.4378391702 -0.0675891529 1.8885545328
H 2.3815564789 -0.6094372853 -0.4868636747
H 0.9562205667 -1.6594079563 -0.0341599453
