12
0
N 2.610921819 0.9055740013 0.7673056777
C 1.4810951947 0.9953705714 0.3325339652
C 0.2836397953 0.9941763332 -0.2104145972
N -0.8059914193 0.375355597 0.4465995342
C -1.3752439519 -0.8234490211 0.0593427572
O -2.4526949625 -1.1777794127 0.488979062
N -0.6459200033 -1.5524150235 -0.8381262169
H 0.3303057076 -1.35865488 -0.9702266835
H 2.9149018399 1.640514844 1.3995292668
H 0.1480746258 1.4941317683 -1.1649114315
H -1.4348148322 0.9458129314 0.9867458961
H -0.9616118131 -2.4945147092 -0.9784542301
