10
0
O -1.6896038097 0.3187775527 -0.1477382083
C -0.9798091559 -0.8795466369 -0.268101916
C 0.5127566086 -0.7361783678 -0.0770362508
C 1.1145348162 0.3925395114 0.1317780634
C 1.7053376764 1.5165350183 0.3582929934
C 2.2784447065 2.6310241837 0.5916590122
H -1.6442068005 0.6304888171 0.759047954
H -1.1657465777 -1.2512925414 -1.2785262819
H -1.3406294115 -1.6457599825 0.4301159676
H 1.1219939476 -1.6355865544 -0.1092143335
