15
0
C 2.1387380663 -0.4224745789 0.2920715269
C 0.9991604747 0.2848533695 -0.4318295714
C -0.208245646 -0.564985981 -0.6878714806
C -1.2605272526 0.0415831993 -0.1207644792
N -2.6077635309 -0.2775076895 -0.1146329075
C -0.731537702 1.2700622655 0.49643994
N 0.5237188783 1.4251678212 0.3479924031
H 1.7884585398 -0.8161539287 1.2479389199
H 2.5154687598 -1.2538306587 -0.3061057218
H 2.9557932649 0.2737798495 0.4806856694
H -0.2010652557 -1.496660196 -1.2362019262
H -3.1195695565 0.0388834033 0.6917920304
H -2.8257780903 -1.2308029743 -0.3509290451
H -1.336913332 1.9935365251 1.0386900271
H 1.3848523821 0.6991615738 -1.3725203849
