13
0
C -1.4152331384 1.0245655825 0.2497256697
N -0.441913323 -0.8772425299 -0.9693518111
C 0.4765940394 -1.6286186655 -0.4960997451
C 1.4347226445 -0.9243717117 0.3637164509
C 1.0364062292 0.349295358 0.390930198
C -0.188947426 0.4654291554 -0.4635108199
H -1.2309626881 2.0428925789 0.5954065192
H -1.6656802655 0.4033909993 1.111227724
H -2.2684350916 1.0321401835 -0.4278113755
H 0.5117605531 -2.6888229623 -0.7300196933
H 2.2834718644 -1.3686968199 0.8637726665
H 1.4953555486 1.1714400259 0.9225520279
H 0.0325330532 1.0967228059 -1.3342648113
