14
0
C -2.3570350823 0.4629550524 0.0167251213
O -1.2118369797 -0.1895356625 -0.4722131277
C -0.1063137205 -0.0615686834 0.376300456
C 1.0452826506 -0.7893937179 -0.2823871844
C 3.174600856 0.0249937668 0.4703644873
O 2.1762072682 -0.7755405113 0.6171517329
H -2.6708700363 0.0495697182 0.983335576
H -2.1826863155 1.53967685 0.1356906117
H -3.1523276479 0.3090867562 -0.7104342874
H -0.3050867928 -0.4997752825 1.3643858108
H 0.1572845515 0.9962224589 0.5263563684
H 0.7909327494 -1.8343574346 -0.4561165572
H 1.3334798992 -0.3127052393 -1.2222397571
H 2.9792586004 0.6235709291 -0.4640132508
