10
0
O 1.5502243816 2.927646454 0.808509664
C 1.4277259967 1.8809030689 0.3340135608
C -1.683322001 -1.2332837827 -0.2622972328
C -0.5469253625 -0.6749867142 0.1124229907
O 0.0819660723 0.2580751128 -0.6674606615
C 1.3129884866 0.688966508 -0.2168250206
H -2.1558585253 -0.975992016 -1.2009876637
H -2.1571684667 -1.9594249693 0.3813670493
H -0.0424778847 -0.9012881376 1.0470283249
H 2.1981653032 0.0910314762 -0.3879800111
