9
0
O 1.8201764816 0.067113212 -0.4411809329
C 0.5184172929 -0.2490017557 -0.1465123975
C -0.5138965084 0.7353504901 0.0632732495
N -1.7299867307 0.4209747947 0.2613935989
N -0.1698966351 -2.5740028296 -0.2867535391
N 0.1723593335 -1.5065694182 -0.2295712946
H 2.3377138349 0.0982877767 0.3677898484
H -0.1311199927 1.7612053779 0.0303531688
H -2.3051870758 1.2475283523 0.3816222986
