10
0
O 2.3764066697 0.2263050381 -0.0549441045
C 1.1696671614 0.1061978369 -0.0272155841
N 0.424265019 -1.0546930943 -0.0029137723
C -0.9356045604 -0.7765635997 0.0245216577
C -1.0684010873 0.5572571347 0.01923745
N 0.2100295663 1.0978481081 -0.0122596637
H 0.8542605958 -1.9597075439 -0.0075957596
H -1.6846005572 -1.5480896438 0.0474124265
H -1.9555492304 1.1651863465 0.0348911773
H 0.4534884231 2.0696914175 -0.0256608273
