12
0
N 0.8532747679 0.295892617 0.9340623882
C -0.2520750687 -0.1609614418 0.5558036839
C -1.0918847939 -0.4316373463 -0.5971458601
C -1.5517067327 -0.7606566503 0.8421983907
C 2.993166367 1.5072590003 -2.1864399136
N 2.4450497659 1.1789822231 -1.2166667587
H 0.9612510148 0.256930101 1.9449970791
H 1.9373305969 0.8812466201 -0.3682275033
H -0.8264270637 -1.2582168974 -1.245126115
H -1.561266362 0.4071161998 -1.0969361715
H -2.3223095303 -0.1377722134 1.280591436
H -1.5848139612 -1.8033612118 1.1352293442
