13
0
C 1.9558204557 0.1206266209 -0.0787607342
N 0.5882662174 0.5542082015 -0.3061464304
C -0.4253498889 0.007264042 0.4483214599
O -0.0595892243 -0.2058985578 1.7374751324
C -1.6514624068 -0.2531783858 -0.0211937972
O -1.9102149951 -0.1230635703 -1.3802116387
H 2.6115213689 0.697336156 -0.7301777613
H 2.2412776824 0.3225702847 0.9514403835
H 2.1108378601 -0.946829588 -0.2782774704
H 0.319837908 0.5780814374 -1.2777564009
H -2.4513945865 -0.6186533255 0.6137062423
H -0.7771567113 -0.6512497232 2.1922967215
H -2.4837616794 0.6336054078 -1.5170467065
