11
0
O -1.7751304278 -1.8868692173 0.3973442582
C -1.980579774 -1.0379938151 -0.4213780833
C 0.7267716246 1.0285148578 -0.2514679403
C 1.1095648209 -0.1652725258 0.5778167669
C 1.9017002831 0.8412718412 0.6623786165
H 0.8281169181 -1.1647579542 0.8597280542
H -1.4528805841 -1.0208190991 -1.3927726896
H -2.7114416097 -0.2256935098 -0.248051954
H 0.8771693012 1.0080617355 -1.3308154138
H -0.1009551601 1.6646785932 0.0635011745
H 2.7834736079 1.2999320934 1.0722932107
