14
0
O -1.5223501621 1.8886840827 0.2229852554
C -0.5997403479 0.9056514226 0.1028550698
C -1.1041261622 -0.4669999122 -0.2234853724
C 0.1442618544 -1.3393178132 -0.0116792587
C 1.3492166731 -0.3731850131 -0.0681387437
C 0.7253439261 0.9712554832 0.1953861577
H -1.07819207 2.7225584251 0.3939892571
H 0.0983156233 -1.7991431899 0.9772275608
H -1.4667595081 -0.4902940672 -1.2564342446
H -1.9428307611 -0.7523881018 0.4147331045
H 0.2215994453 -2.1473033283 -0.7394439226
H 1.837209746 -0.3956862029 -1.0492423842
H 2.1142623901 -0.6386166662 0.6654559405
H 1.2950933533 1.8739868812 0.3815025804
