11
0
O 1.4542013988 -1.1883535742 -0.8060868203
C 0.6669410801 -0.2882177806 -0.1867887496
N 0.6321230938 -0.2110322961 1.2423476929
C -0.6532384839 -0.2535322735 0.4575187787
C -0.7611032674 1.1367696922 -0.1292468514
O 0.5541307395 1.0000804345 -0.7424605269
H 0.7957886163 -1.1484584687 1.5996745466
H 1.2294784051 -1.1946504694 -1.7409004241
H -1.4176771466 -0.9911674671 0.6439619031
H -0.7798177054 1.9638929553 0.5806793299
H -1.5297077305 1.2473082475 -0.8951188789
