17
0
C -2.452188637 0.2067752415 -0.6273229784
O -1.5854019839 -0.2209127193 0.4307180503
C -0.2835390594 -0.1871054495 0.4293001041
C 2.0742801605 0.1628030251 -0.2701025982
C 0.240703179 -0.74247379 1.7169607112
C 0.5847944248 0.2736257706 -0.5716197983
C 0.0474204271 0.797905582 -1.7439297972
H -2.2429793727 -0.3496398203 -1.5370945228
H -3.4509596134 0.0081019028 -0.2405777164
H -2.2919502436 1.2588722553 -0.8459318483
H 2.391812724 -0.8636513185 -0.063887774
H 2.3784693222 0.7727974017 0.5860255884
H 2.6352879441 0.5115317359 -1.1355242229
H 0.9013473041 -0.0201355987 2.1984556641
H 0.839215078 -1.6339072695 1.5180597515
H -0.5763686726 -0.9969642786 2.3866175839
H 0.8876650188 1.1083803296 -2.3898451969
