7
0
O -2.2672290745 -0.8662169458 1.0714811462
C -1.7046676151 -0.1017791847 0.3387644623
C -0.2574514598 -0.0272660199 0.2259970793
C 0.9326228773 0.0588403779 0.1090372254
C 3.4013761684 0.2182376103 -0.1160571896
N 2.2350991948 0.1425227251 -0.0092980119
H -2.2538750911 0.6040834371 -0.3070407118
