12
0
O -2.0721833373 0.4353472738 0.1944584194
C -0.8449160077 -0.156605679 -0.0822273457
C 0.1616916426 0.5731701858 -0.9314150736
C 0.3394194665 0.4440906005 0.5318493242
C 0.9571904706 0.7688369361 1.6103920718
O 1.5201967303 1.0492633058 2.5853436137
H -2.6714528526 0.2416583303 -0.5301546312
H -0.8660989976 -1.2434294459 -0.1447482074
H 0.8180897875 -0.0026957508 -1.5756263206
H -0.1399914381 1.5454612449 -1.3057411345
H 1.769213084 -1.9815453303 -0.0529443631
H 1.9163014519 -2.5136806712 -0.5550733529
