10
0
N -1.9843754152 1.1920238782 -0.3274306057
C -2.6802782185 0.7071079819 0.5390752866
O -3.2393928676 0.1812690313 1.4037739118
C 2.2675077039 -1.3836647631 0.2153279911
C 1.6416326586 -0.3511149649 -0.2843279408
N 1.1424113628 0.6334457216 -0.7928923513
H -2.3203854321 1.8508497004 -1.0083438776
H 0.1543349961 0.7905305241 -0.5912860412
H 2.7587823651 -1.3085062064 1.1743148978
H 2.2870598467 -2.3177119029 -0.3265642706
