15
0
C -2.480819443 1.0170896732 0.176216111
C -1.58550334 0.5038018605 -0.917089172
C 1.1250220733 0.0044856595 -0.3373069567
C -0.1469147821 0.5158683971 -0.825800832
N -0.569205011 1.4524020866 -1.5406673704
N 1.1580531103 -0.9897039804 0.4371384413
C 2.4467737834 -1.4508012519 0.8911067433
H -1.9505769094 1.729937768 0.809090953
H -3.3582657475 1.5143101931 -0.2426716433
H -2.8263146973 0.1943816919 0.8060694105
H -2.0497136885 -0.1824883823 -1.6219420358
H 2.0207707316 0.5348221403 -0.6848381207
H 3.2899712302 -0.8763620451 0.4875846522
H 2.5601567836 -2.5006083361 0.6141755312
H 2.4694199064 -1.4063394743 1.9817362883
