12
0
O -2.1917673269 0.8228416762 -0.8898431596
C -1.341521569 0.0697979088 -0.2837514937
C 0.0267629476 0.3260635787 -0.252067623
N 0.4214772132 1.4392346309 -0.9123170488
O 1.7154484103 1.4577667654 -0.7418974975
C 2.0939907791 0.3607942411 0.0172565808
C 1.0522130039 -0.4402974882 0.3862112169
H -1.7127364782 1.5690440388 -1.2992055898
H -1.1434935321 -2.7073308476 2.029876545
H -1.7680681421 -0.7973236152 0.2109286144
H 3.1611179361 0.3422097305 0.179001838
H -0.5343932421 -2.3661716193 1.7557616175
