12
0
O 0.102201736 -1.3298922871 -1.1153320962
C 0.0132879756 -0.1780224034 -0.3365449956
C -0.460157198 -0.2775959881 1.0908412162
C -0.2974000679 1.0682748729 -1.0880294671
O -0.4264634464 2.1514413539 -0.5832050753
C 0.9856057774 -0.0630775392 0.8027896157
H -0.7786438935 -1.6865996692 -1.2473415648
H -1.0351361279 0.5577259922 1.4681706887
H -0.7694578115 -1.2616235609 1.4178558282
H -0.3982556596 0.920494871 -2.1830418408
H 1.6558665557 -0.9038153045 0.9166375871
H 1.40278216 0.9176336625 0.9878221041
