8
0
N 1.6059841741 0.2895373903 -0.4544492908
N 0.9247904528 1.1133955467 0.1723492981
C -0.3902555192 0.7094681542 0.4708650487
C -0.8277210925 -0.5194392095 0.2548276759
N -1.1743727204 -1.6712553904 0.1802816559
H 2.5313652495 0.7118913401 -0.5758080102
H -1.0393958512 1.4490629678 0.9136743878
H -1.592419693 -2.0022957991 -0.6831127657
