15
0
C 2.3657196971 -0.8418202583 0.3943684497
C 1.1396997404 -0.3247803516 0.2618184656
C -0.0741354965 -0.9954031419 -0.1941729369
C -1.0617537532 -0.1000768527 -0.3126181457
N -2.3503397465 -0.2589382707 -0.7673987006
C -0.5619341753 1.2693331305 0.053293686
N 0.7697118629 0.9954036285 0.5542112176
H 3.1970937 -0.25009042 0.754565709
H 2.5476225468 -1.8783476934 0.1500608233
H -0.5649168986 1.9188335878 -0.8325348721
H -0.1309072575 -2.0540710318 -0.4014137154
H -3.028736819 0.3963743495 -0.4191371196
H -2.6954208536 -1.2027290485 -0.8028475721
H -1.1973090991 1.7423427123 0.8128153598
H 1.4696345522 1.7011666602 0.4089953513
