15
0
C -2.8364381212 0.0789480306 -0.4476020405
C -0.5892780267 0.3298512577 0.573911308
C -1.7589260968 0.8147226597 0.295096815
N 1.7039306523 0.7255906145 -1.0817449351
C 1.7538123711 -0.033077414 -0.0626423566
N 2.8498873815 -0.7663409808 0.3544616283
C 0.5883186451 -0.1607028579 0.8487287475
H -3.0820009134 0.602968601 -1.3737938943
H -2.5225146992 -0.9332943186 -0.6981044571
H -3.7488970109 0.0241222397 0.1502596278
H -1.9649013609 1.8365290056 0.6042765597
H 2.5725700017 0.6998767604 -1.6099623022
H 2.6833395743 -1.5551732844 0.9538965857
H 3.5933240868 -0.8946911053 -0.3096332782
H 0.7346415164 -0.6846412085 1.7891249917
