14
0
C -1.9797302598 0.3848549537 0.3369035091
C -0.5776280365 -0.0024636212 -0.0133350145
C 0.4776449089 0.7591264734 0.3001497132
C 1.8993523415 0.4734760209 0.0552587718
N 2.3901097677 -0.6951959524 0.0643465722
C -0.4359455505 -1.2788980165 -0.7713298793
O -1.3590751096 -2.0418956637 -0.9089890076
H -2.0079318077 1.3284763544 0.8801343442
H -2.4376285441 -0.39557342 0.9472501232
H -2.5924457169 0.4693434753 -0.5625346207
H 0.5465325693 -1.4800219398 -1.2214107632
H 0.2911778782 1.716492752 0.7809556486
H 2.5166014422 1.3651476682 -0.106377859
H 3.3887401175 -0.6698800843 -0.129662538
