14
0
O -2.6081319387 1.4645551066 -0.9904337862
C -2.0473061044 0.4910800264 -0.2616149569
N -0.8775367293 0.567315176 0.1818639204
C -0.3631744956 -0.5384944965 0.9543012234
C 0.9356803159 -1.0799713349 0.350192871
C 2.0369840075 -0.1219776381 0.3889457322
C 2.9394226111 0.6627615091 0.4406448724
H -2.7374168834 -0.3443451803 -0.1157904005
H -1.9478814247 2.1639451752 -1.0779358414
H -1.0838065411 -1.3655313451 1.0281710354
H -0.1579871057 -0.1877536935 1.9689259986
H 1.2311833829 -1.9801752156 0.8958287532
H 0.7537796881 -1.3788297637 -0.6855660933
H 3.7390402178 1.3634376745 0.4833006718
