17
0
C -1.8281915936 -0.5345612116 -0.067666518
C -1.4354122075 0.8501343229 -0.5070407151
C -0.391777089 -0.1335789837 -0.0681655556
C 0.6206447195 -0.6686375074 -1.06864044
C 1.9779868358 -0.1922594416 -0.7267897136
C 1.804927841 0.4191286988 0.6095254925
C 0.422276544 0.0851507441 1.1907016833
H -2.1640731611 -1.2310841307 -0.8261723426
H -2.3276703841 -0.6383231231 0.8876220197
H -1.5051029391 1.0855231374 -1.5621461177
H -1.6693245811 1.6753705136 0.1541727039
H 0.8051122857 -1.7480290015 -0.8791573717
H 0.3552554758 -0.6093112663 -2.1259385804
H 0.4771374185 -0.8385240972 1.7761109294
H 1.8181258084 1.4729502208 0.2599951094
H 2.6645590023 0.3336873143 1.2747883296
H 0.0193680245 0.8638618111 1.8399570869
