15
0
C -0.5898146111 -1.9795146986 0.0036500336
C -0.0387910881 0.7080476906 -0.2590568449
C -1.2793264734 1.1658141194 -0.8312866307
N -0.1348533459 2.089021844 -0.5909712038
C 0.9016750569 -0.1661313843 0.062464605
O 0.7212204977 -1.5004426303 0.2003569824
N 2.2307090175 0.1712330035 0.2876292472
H -0.923502775 -1.8034168236 -1.0226705352
H -0.5574971815 -3.0496166661 0.1969218217
H -1.2899699079 -1.4985175128 0.6933817385
H -1.5012305591 0.9966003898 -1.8799943093
H -2.1519169225 1.2666593972 -0.1919440271
H -0.3223554467 2.6503586162 0.2352053228
H 2.3952435301 1.1639743076 0.2601187647
H 2.6238162088 -0.2636386526 1.108332035
