13
0
O 0.3153302203 -1.4167560499 -0.6265964844
C 1.4250626957 -0.6626005609 -0.4707368665
N 1.3409313992 0.4627653261 0.20200748
C 0.2461020798 0.9646134167 0.8168975036
C -1.0122075469 0.1877589222 0.6237774052
C -0.8915243186 -0.6496694342 -0.6521432734
H 2.3578860191 -1.0381817547 -0.8522755869
H 2.1906380477 1.0024757472 0.2551900168
H 0.2827276966 2.0080509626 1.0830370043
H -1.2285930306 -0.4956271 1.4535041508
H -1.8736684512 0.8566697536 0.5369072914
H -0.8877767716 -0.0048480365 -1.5364417632
H -1.6940420396 -1.378055192 -0.7502898775
