14
0
C -0.3578541287 1.5864886251 0.2291560924
C 0.086885174 0.1695478665 -0.0045348184
C -0.8372495117 -0.725459367 -0.8089419299
C -2.1551700782 -0.8608087676 -0.1852676771
N -3.1852759206 -0.9521743499 0.3107400294
C 1.217935796 -0.3035325208 0.4346081041
C 2.3452717978 -0.7801813233 0.8718505797
H -0.5057400303 2.1033893387 -0.7230444957
H -1.3101500602 1.6049772291 0.7648432505
H 0.3786201487 2.1368922738 0.8108871269
H 2.4145156902 -1.2404597865 1.8510446415
H -0.9856673445 -0.307889915 -1.8094730555
H -0.4043761362 -1.7188133506 -0.926003572
H 3.2472526034 -0.7307879523 0.2723237241
