12
0
C -0.5184895811 -2.2176663501 -0.5195282998
C 0.2676293813 1.2068203549 0.514265307
C 0.0078439809 2.614076775 0.4435427648
O 0.3048599178 1.9132135958 1.681006967
C 0.424422679 0.00684246 0.0786823552
C 0.5774862241 -1.2024595413 -0.3849811042
H -1.4687510798 -1.8217054064 -0.1643776026
H -0.6327310188 -2.5220321428 -1.5629582478
H -0.2784776027 -3.1163066862 0.0540694096
H -1.0132518899 2.9728243264 0.3608278198
H 0.7873136837 3.2919187954 0.1103676072
H 1.5723163054 -1.5138991807 -0.6990929762
