13
0
O 2.7629891945 -0.3102567566 -0.822485806
C 1.6074831127 -0.5500330094 -1.0376420401
C 0.5927950413 -0.8941510095 0.0186410897
C -0.6359739145 -0.023205455 -0.0825181004
N -1.443570233 0.0906486604 1.1226116674
C -0.7257070876 1.2655743385 0.6333421355
H 0.1012572695 1.5852564437 1.2570917106
H 1.2181783657 -0.527573509 -2.0794292485
H 1.0487558017 -0.802485755 1.0045575727
H 0.3047186056 -1.9422968822 -0.1266081735
H -1.1663484065 -0.0824954584 -1.0298701825
H -2.4284358486 0.1480439929 0.897450578
H -1.2891869008 2.0696953996 0.1738027975
