16
0
C -1.798610209 0.0678482794 0.9682156077
C -0.595403919 0.1072532171 0.0668831216
C -0.2991326382 -1.1523232171 -0.7012033194
C -0.1025716612 1.391577797 -0.4267986328
O 0.5548373986 0.7373404183 0.6605632766
C 4.1197867148 -0.5305136068 -0.3734392663
N 3.0967463602 -0.149386384 0.0232095021
H -1.8987354299 1.0010777668 1.5214717941
H -2.7054360365 -0.0925632964 0.3821142809
H -1.7074343593 -0.7507915683 1.6846027999
H -0.1431080181 -1.9864447655 -0.0143040699
H -1.1398066445 -1.4018819776 -1.3509997515
H 0.5931970643 -1.0440507537 -1.3175579383
H -0.6129166381 2.3098441007 -0.1542301066
H 0.4675953621 1.427063354 -1.3507616774
H 2.1812776538 0.1766706364 0.3432863793
