13
0
C 1.3051314682 1.4799760154 1.0406539028
N 0.364895274 -2.9728172703 -0.6905341874
C -0.2884106697 -2.0416628859 -0.5460404158
C -1.1328469597 -0.8664752079 -0.3417424102
C -0.5469096541 0.1024492836 0.6743290799
O 0.6225641349 0.6482166883 0.1369973985
H 0.6838909905 2.3306619386 1.34947488
H 2.1913470915 1.8546177699 0.5319130395
H 1.6144583323 0.9263930283 1.9358043193
H -2.1161413141 -1.2042019897 -0.0084234456
H -1.2597204806 -0.357607545 -1.2990519699
H -1.2861775375 0.8891375225 0.8823400794
H -0.3383106757 -0.4198663478 1.6183057295
