12
0
N -1.7136851326 0.1501415743 0.3143580406
C -0.377399371 -0.1209654717 0.0429497899
C 0.5666425768 1.0619065415 0.3061969883
N 1.8567381676 0.8415111534 -0.4389380414
C 1.9422859592 -0.376609475 -0.396132906
N 1.5666998713 -1.5337741032 -0.2470434843
C 0.113012637 -1.3228465194 -0.2964329473
H -2.0590465382 1.0160265538 -0.0682595364
H -2.3484680051 -0.611293516 0.1371121093
H 0.1475115161 1.9846660907 -0.0961541156
H 0.7075489714 1.2003448029 1.3843778268
H -0.4826876525 -2.1996356313 -0.5044027239
