14
0
C 2.2715271174 -0.7367627514 0.1278465636
C -0.4185120094 1.39665915 -1.1566672756
O -0.7086184761 0.1492853443 -1.4493712084
C -1.4030229014 -0.5419504188 -0.3938270367
C -1.5310221846 0.4898164939 0.6550438656
C -0.958681276 1.6087706465 0.2063110675
H 1.9409323329 -1.566494849 -0.4958389127
H 3.2951586979 -0.9160863891 0.4529823738
H 1.627399452 -0.6506472173 1.0031316139
H 2.2245557424 0.1850404733 -0.4494268201
H -2.3573045897 -0.9006997874 -0.786436244
H -0.7977794572 -1.4015034967 -0.0959050991
H -2.0135073617 0.3183927416 1.6077168283
H -0.8793140864 2.5515390599 0.7268392839
