11
0
N -1.9054047547 -0.5791311847 -0.366956969
C -0.721825167 -0.2144623778 -0.1424801615
C -0.3280402973 1.1638865064 0.3340173298
O 1.0929039682 1.1270994362 0.4569609725
C 1.5647966507 -0.0872257568 0.1090187032
O 2.713226926 -0.3990719834 0.115216476
N 0.4832110715 -0.8784922923 -0.2465388487
H -1.970353464 -1.5427305656 -0.682307851
H -0.7735187262 1.3912411932 1.3023531138
H -0.6121776327 1.9286666237 -0.3886301169
H 0.6140964256 -1.8302895988 -0.5391446482
