15
0
N 0.96643511 -0.5852910596 -2.3032149057
C 2.0214894946 -1.0444813496 -2.639062463
O 3.0097867799 -1.495013158 -3.0676827208
C 0.5827782308 0.6087412539 1.3233265363
N -0.1734611207 0.1766450706 0.1626006448
C -1.467094049 0.7994608051 -0.0484342385
C -1.371232078 -0.6036648992 0.412037511
H 1.2743057581 -0.1818297366 1.6171258507
H 0.6283670223 -0.287787503 -1.3681353745
H -0.0628562295 0.8464346331 2.1788708607
H 1.1616242895 1.4964827104 1.0656280866
H -1.7782403481 1.5471173968 0.6739845458
H -1.719485235 1.0158112092 -1.0794055643
H -1.617913305 -0.8130849995 1.4479665844
H -1.55452232 -1.4144493737 -0.2825433534
