15
0
C 0.2524197681 0.0759996205 -1.5991651886
C -0.1309103602 -0.792258678 -0.4544771624
O -1.4622481263 -1.1070967194 -0.4682480322
C 0.6964491926 -1.2464205141 0.4826434488
O 2.0528305506 -1.0165137184 0.4256819451
C 0.8116256635 2.1431082122 1.2694279915
O 1.5423694244 1.7563093363 2.0320410561
H -0.3373000777 0.9952261862 -1.5821183278
H 1.3100159644 0.3243168583 -1.551421687
H 0.0475109006 -0.4340705353 -2.5425989753
H -2.4855422737 1.1142777047 0.4399637726
H -1.6628564258 -1.7032534502 0.2574968255
H 0.3454933981 -1.8876002277 1.2895367161
H 2.3555093219 -0.7039135664 1.2805202875
H -2.7491979205 1.7367314913 0.75586333
