9
0
O 2.2448945459 0.4587783001 0.417360312
C 1.2105144108 -0.1453237451 0.3772141171
C -0.0900353792 0.4912736405 0.007839559
C -0.820027896 -0.0099440793 -1.1842904139
O -1.1829958063 -0.344854581 0.4947589139
H 1.1525110415 -1.2429273212 0.5341152262
H -0.167889453 1.5406182149 0.2833772338
H -1.9691848052 0.2034872857 0.5886013041
H -0.3705986585 -0.9854757145 -1.4376492522
