15
0
C 1.8246036713 1.8562355328 0.1866547826
C 0.7638427415 0.8756948834 -0.2859192943
O -0.4882914986 1.3040754697 0.1405848133
C -2.1610132538 -1.0200576495 -0.2582100003
N -1.7321206646 -2.1921811523 0.0889234348
C 1.0462544292 -0.490257242 0.2301818586
N 1.2128338935 -1.5588044326 0.6173704835
H 1.8085198511 1.9264965577 1.2740095423
H 1.5967814948 2.8369340767 -0.2295886173
H 2.8190068473 1.5502466323 -0.139998695
H -1.144016979 0.5789237341 -0.0495670725
H -3.2227757329 -1.1036975995 -0.5385821673
H 0.8134478218 0.7876512628 -1.381528848
H -2.2950429513 -3.0349395317 0.0964903682
H -0.7629226705 -2.306546542 0.3783644116
