11
0
O 1.893895418 -1.4644621655 0.5013170143
C 0.987202391 -0.7019060123 0.2499047835
C 1.0626775181 0.7195827486 -0.0043527319
C -0.05987694 1.4214371389 -0.2721839176
N -1.3226609902 0.8852998805 -0.3273932138
C -1.39697592 -0.3791715409 -0.1010112364
N -0.3350687135 -1.1677229349 0.1760890866
H 2.0372983121 1.1852612519 0.0280635171
H -0.007750817 2.4877540094 -0.4636743735
H -0.462553854 -2.1545381333 0.3440381084
H -2.3627204045 -0.8754172425 -0.1262840369
