11
0
C -1.6543274243 0.0483654295 -0.347531602
C -0.2224241575 0.0656729209 0.0719046335
O 0.6377743138 -0.6247661064 -0.7832583667
C 0.185249428 0.6862530231 1.167282465
O 0.2986120585 1.2888882465 2.1512668358
C 1.9168750954 -0.6280664084 -0.4438627697
O 2.3430919684 -0.0796189072 0.5345955995
H -2.2590293897 0.6167211101 0.3582529661
H -2.0401951475 -0.9730603939 -0.3816437318
H -1.7742156833 0.4977920335 -1.3359635773
H 2.5107589381 -1.1924289476 -1.1694514524
