14
0
C 2.0904486952 -0.9616705211 -0.2558294212
C 0.8404974901 -0.2343788151 0.1221117402
C -0.3884661171 -0.6528322314 -0.1491835353
C -1.6502403544 0.067906121 0.2428125076
C -1.4499811202 1.5514482632 0.3992527199
O -1.6987476694 2.175440322 1.393448701
H 2.6749619983 -1.2185485784 0.6311773325
H 1.8677387987 -1.8819017365 -0.7976138821
H 2.7287950408 -0.3385846709 -0.887204718
H 0.9762780009 0.6980304159 0.6679481215
H -1.0414962014 2.060438831 -0.4995358368
H -0.5173777524 -1.5911805882 -0.6827984264
H -2.4012301406 -0.069834292 -0.5440547507
H -2.0728996685 -0.3326735196 1.1673564479
