19
0
C -0.9935639845 -1.8151211713 -0.1511814394
C -0.6388471941 -0.3416733614 -0.0915422765
C -1.3294591412 0.495339262 0.9911300447
C -0.4036517259 1.6730141998 1.0503318774
O 0.8184208859 1.1684005542 0.7517523752
C 0.7869732362 0.0111302769 0.1803601297
C 2.017229297 -0.5331420659 -0.4357565857
H -2.0492812969 -1.9464569871 -0.3942228318
H -0.4131604265 -2.3386271559 -0.9138072493
H -0.8067161644 -2.2977547512 0.8105383712
H -0.8719267654 0.1360236496 -1.0667449727
H -1.3094253427 -0.068119804 1.9470090881
H -2.3646995059 0.7330780346 0.7546058229
H -0.3544365015 2.3837330615 1.864021035
H 0.2238358126 2.4319693977 -1.613176209
H 0.5833524663 2.3891491617 -2.2679607481
H 2.1173618932 -1.6012506405 -0.2306629379
H 2.0061531694 -0.4122805329 -1.5263552337
H 2.8951762885 -0.0215841277 -0.0435012603
