15
0
C 1.9803623598 0.0431443792 0.0815993558
O 0.7378596093 0.0056706411 0.7550130139
C -0.3911286092 -0.2302382603 -0.054377962
O -0.3562741513 -1.4716029621 -0.6697183581
C -1.5168975882 -0.1939900575 0.9850407901
C -0.5941068606 0.8374283843 -1.1172324226
O -2.1768147951 -1.1607857402 1.2396054505
H 2.0930221507 -0.8145860585 -0.5857387255
H 2.7492753323 0.000711123 0.8506494417
H 2.101993139 0.969980937 -0.4881931814
H -1.6596246042 0.7710188435 1.503735776
H -0.5233250466 1.8344323855 -0.6806168658
H -1.5722212494 0.7139196588 -1.5828308974
H 0.1603462203 0.7315082117 -1.8961777124
H -0.804801907 -2.0957884853 -0.084020703
