14
0
C 1.4202390118 0.1431756167 0.6246223783
C 0.2343232566 0.0395221367 -0.3009405192
C -0.1087704825 -1.2307599926 -1.1491817628
C -0.9948279546 -0.9128917806 -0.0366044774
C -0.2456713354 1.1237103514 -0.9593326619
O -0.7270007894 2.0261031762 -1.4729806336
H 1.510701176 -0.8193805739 1.1265324454
H 2.345704803 0.3650890849 0.0907881312
H 1.2532937114 0.9010251919 1.3902460687
H -0.352632382 -1.0860750705 -2.2034251473
H 0.6805983307 -1.963134858 -0.993627118
H -1.4325480564 0.6418142507 2.1027924166
H -1.9452374129 -0.4711216018 -0.3504434942
H -1.4744898764 1.3086810688 2.4404083741
