14
0
C 1.5133076167 0.5429428428 -0.4042197454
N 1.1331414327 -1.165410904 1.3341266326
C 0.5764853863 0.0076917037 0.671552241
C -0.7295860589 -0.5274368966 0.1928519847
C -1.7556668499 0.228464751 -0.56861735
N -0.8551859269 -1.7515989095 0.5278790566
N 0.3444958376 -2.1078055586 1.2457871712
H 1.6815092263 -0.2116661257 -1.1735237892
H 2.4733502528 0.8076061928 0.0357717469
H 1.0873115504 1.4316188546 -0.870941132
H 0.4208786248 0.769204061 1.4446357345
H -2.6112832772 -0.4082738826 -0.7814764946
H -2.087766366 1.1012923687 -0.0024100659
H -1.3384184487 0.5939205024 -1.5099839905
