12
0
O -1.1386178643 2.1600439904 -0.0265964539
C -0.6207000223 1.0871678896 0.0131355124
C -1.0063089655 -0.2824610399 -0.5393382978
C 0.1650189546 -0.9052052799 0.2486682664
C 1.7665556506 0.209609007 -0.0609418908
C 0.6172043155 0.5699162252 0.7248815388
H -1.9985279701 -0.5833421984 -0.2007310208
H -0.9516370632 -0.4017935459 -1.6206460682
H -0.0544464786 -1.5119090664 1.1217919311
H 1.521063916 0.3581832115 -1.128275911
H 0.9077973939 -1.4637128717 -0.3434850273
H 0.7487581335 0.7379216785 1.7915264212
