19
0
C 0.6096542943 -1.2503487526 -0.6078553236
C 0.218324657 0.1508201023 -0.2725333722
C -0.436704419 0.5709945402 1.0243779657
C -0.7900682993 2.034293503 0.7248688195
O -0.0392583598 2.4070521655 -0.4443338644
C 0.409503442 1.2461330449 -0.9954967579
C 1.62247106 -1.8472976139 0.3690904871
H -3.0198085706 -0.6053703527 -1.2927038585
H 1.0175812826 -1.2741549545 -1.6218414623
H -0.2866251021 -1.8816575056 -0.6223517388
H -2.3660467902 -0.2451036049 -1.3106672953
H 0.2532712711 0.4724186601 1.8685763418
H -1.3244718008 -0.0216915404 1.259770037
H -0.5319106429 2.7270684065 1.5246224724
H -1.8520844183 2.1477741054 0.4882109147
H 0.8832390078 1.3524380902 -1.9620496848
H 1.2259893763 -1.8714904093 1.3864264854
H 1.8778040977 -2.8714279978 0.090962627
H 2.5422039145 -1.2591298864 0.3827762071
