21
0
C 2.2498439171 -1.2425761844 0.4878000866
O 1.3777964846 -0.2534599424 0.9686444808
C 1.1576525847 0.766551602 0.0414621596
C 0.320264066 1.8520343832 0.5182562482
C -0.091448895 2.7341561191 -0.583239108
C -2.1808731962 -0.6800155576 0.5055424013
C -1.4772171759 -1.8171941611 -0.220095606
H 3.2447188215 -0.8324346617 0.2673643777
H 1.8597610603 -1.7161168877 -0.4232560989
H 2.3454630933 -1.9987758016 1.2650606324
H 0.8351260499 0.3538779693 -0.9349824853
H 2.1004003268 1.3230075478 -0.1777097225
H -0.1723813904 3.7775909019 -0.2766548879
H -1.1352310934 2.4083762332 -0.7282094795
H 0.4257400758 2.6421442727 -1.5497960593
H -2.7233831948 -0.0365059136 -0.1915262134
H -1.4705666654 -0.0610706526 1.0589564794
H -2.9071034088 -1.0602283449 1.2265795222
H -0.7682186496 -1.4407804443 -0.9619531108
H -2.1864605927 -2.4582516066 -0.7477277659
H -0.9150652178 -2.4407308705 0.477034149
