12
0
O -1.3113394618 0.8862589723 0.7111165435
C -0.9154492907 -0.3944887194 0.8697205588
C -0.0987109445 -0.7776882488 1.8447299567
O -0.3185626187 0.7841756454 -1.9452931176
C 0.8733447934 0.6224635801 -1.9569485289
O 1.6101363828 0.1549472209 -0.9643697694
H -1.4287927739 1.0460621598 -0.2349261271
H 1.0529993212 -0.0686962282 -0.1920145631
H -1.3162389545 -1.1069073264 0.1508212103
H 0.1396269405 -1.8247059543 1.9676855265
H 0.2916710239 -0.0634163624 2.5589159687
H 1.504836582 0.8509972611 -2.8247796588
