14
0
O 1.8368200289 -1.2792356531 0.9192551485
C 1.949515019 -0.4495718526 -0.0799769234
C -0.9907557265 -1.0343164496 -0.5888894781
C -1.176398983 0.4425419987 -0.2758658683
C 0.0383753827 1.2262711554 0.12918805
C 1.3161693884 0.8450688704 0.1878298824
H 1.3108128631 -0.9094937599 1.6564084496
H -0.1861790527 -1.1945048535 -1.3104018822
H -1.9059290039 -1.4450327023 -1.0175395205
H -0.7572317358 -1.6192870865 0.3020980344
H -1.5910352382 0.9426191337 -1.1588131723
H -1.9393163735 0.5706446232 0.5000239652
H -0.1591253692 2.2776892618 0.3214316079
H 2.0707838008 1.6107683142 0.3708767069
