11
0
O -0.4643409734 -1.1818488431 0.3180842654
C -1.3563367562 -0.3704788318 -0.4798041706
C -0.3227716369 0.7639462776 -0.5034385016
C 0.4933453546 -0.1946039524 0.3252802358
C 1.6784688545 -0.2234963977 0.9050286901
H 2.006601888 -1.0929018446 1.4581470742
H -1.5711054777 -0.8469475689 -1.4373263251
H -2.2850816218 -0.1656421195 0.054594829
H 0.0947456909 1.0014086022 -1.4801987523
H -0.6171130305 1.6803545694 0.0047845619
H 2.3339537086 0.6317761087 0.8287250933
