15
0
O -1.9107316254 0.8652882308 0.80047
C -1.3492547489 -0.1389886664 1.1418690941
C -0.0593807014 -0.6369735826 0.5603142597
C 1.1722815839 -0.4410714747 1.5016423645
C 1.8711321547 0.2313594299 0.3181194574
O 3.0003869496 0.5550638359 0.1217838838
C 0.6056166377 0.2337648503 -0.5266000119
H -2.4016675939 0.9696414079 -1.8180642424
H -1.7626602885 -0.760956517 1.9629059837
H -2.4754242732 0.8166398279 -2.5444018042
H -0.1816638285 -1.6845589841 0.2781285068
H 0.9949158997 0.2596699735 2.3210641335
H 1.6589319137 -1.3334245375 1.8924929161
H 0.1528103164 1.2261821759 -0.5898381345
H 0.698734604 -0.1811259698 -1.5291864065
