16
0
C 2.0376909989 -0.4004696285 -0.1794646247
C 0.9087633456 -0.1037529487 -1.1655101477
C 0.0830594839 1.0394679476 -0.8398260926
C -1.5629237927 -1.4065716052 1.2427031788
C -0.6105725281 2.0086347823 -0.5301907345
C -1.2978207695 3.0638830809 -0.0621065577
H 2.7277326825 0.4413429674 -0.1177323049
H 1.6386660179 -0.5819869428 0.8187339897
H 2.5979799015 -1.2824204056 -0.4945442254
H 1.2947798603 0.0311599749 -2.1819295806
H 0.2263162149 -0.958933435 -1.2428288012
H -2.09730851 -1.2447421698 0.3071037055
H -1.1187595255 -0.4682105266 1.571985692
H -2.2623375811 -1.7591735451 1.9990022225
H -0.7838169376 -2.1543355902 1.0965834159
H -2.0639868609 3.4053220444 -0.7699821352
