16
0
C 1.7138413092 0.2785275589 1.6483874313
C 1.455255907 -0.09489777 0.217794441
C 2.190460252 0.2221195536 -0.7995175969
C 0.2450848347 -0.9273831107 -0.1856243479
C -1.0567983345 -0.224308368 0.1046208578
C -1.6086065669 0.7621444097 -0.8416218968
N -2.1739035385 -0.5833922674 -0.7603660205
H 0.9121660682 0.9152541901 2.0269449445
H 2.6551440927 0.8156559526 1.7539448681
H 1.7562103431 -0.6217568808 2.2651490239
H 0.2942811039 -1.8820037396 0.3471868037
H 0.2775311923 -1.1609873328 -1.2528379159
H -1.2769799472 -0.0628210568 1.1563453254
H -1.0642848614 0.9752000183 -1.7548897131
H -2.1781607073 1.5941534983 -0.4436445856
H -3.0467971473 -0.5791836556 -0.2483576191
