10
0
O 2.2349716878 1.1513081273 0.5614562781
C 1.2058073539 0.6095818181 0.295326921
C 1.059766237 -0.6290134449 -0.4899921682
N -0.0581595297 -1.1866910217 -0.7591609264
C -1.2043401618 -0.5818297591 -0.2773717614
C -1.146778422 0.5422202783 0.4414971819
O 0.0201469863 1.1465041659 0.7366923472
H 1.9840745559 -1.0699440766 -0.8500549291
H -2.1491808735 -1.0532694181 -0.5050047201
H -2.0003828341 1.0659603309 0.8486777769
