17
0
C 2.1417524647 -0.9477932623 -0.0386271733
N 2.1187310809 0.4737449538 -0.2518680697
C 1.3594258814 1.2961290203 -0.6694135755
O 0.7220933298 2.1958015605 -1.0589942099
N -1.1761347601 -0.3217786381 -0.151860946
C -1.6654762915 -0.3142253453 1.0057256071
C -2.0236653614 0.0580893416 -1.2595700346
H 1.1256504291 -1.3426570982 -0.0045869501
H 2.6945459222 -1.4325927877 -0.8444888327
H 2.6530480157 -1.1603721379 0.8996951775
H 1.4801341116 0.7840742971 2.4647335875
H 1.3438567666 0.6402140572 3.1837693142
H -1.0380532434 -0.5854088783 1.8529716507
H -2.7075703408 -0.041325584 1.213648839
H -2.0355679315 -0.7522215481 -1.9906379757
H -3.0537657834 0.288486339 -0.9590307791
H -1.5879722899 0.9323557107 -1.7460196293
