13
0
O -0.8929119136 -1.0833210224 1.161627264
C -1.8065346957 -0.7679159991 0.4386745935
C -1.7039486664 0.1659835523 -0.7172262985
N 1.6779043801 0.7606242601 -0.6280647493
C 2.3348338696 0.2996127389 0.3495483243
O 1.8093224368 -0.4532505552 1.3014954876
H 0.8523429139 -0.5987056968 1.1387925579
H -2.0879676663 -0.3320289761 -1.6117375691
H -2.810130387 -1.1934761173 0.6360469278
H -2.362107775 1.0201900833 -0.5318964551
H -0.6757603446 0.497195227 -0.8678392665
H 2.279680527 1.3084138996 -1.2314958137
H 3.4004593212 0.4627136059 0.5276249975
