13
0
C 2.2641283137 -0.244032409 -0.5280756141
O 1.1372483711 0.0365617268 0.2859754567
C 0.0030762265 -0.5713099268 -0.1399232105
C -2.0744422556 0.9288418526 0.8874982483
O -2.5145630873 -0.3916203724 0.4557301309
C -1.2696330738 0.0470529371 0.0897171378
O -0.7591194496 0.0944167655 -1.188462753
H 2.431315546 -1.3239404647 -0.6055625383
H 3.1236745887 0.2189970224 -0.0490413568
H 2.1340648458 0.1755819787 -1.5289813349
H 0.0766484786 -1.6475180142 -0.298451761
H -2.5863310144 1.7520826613 0.4004317246
H -1.8968884898 1.0281872425 1.9530278702
