16
0
C -1.2818898589 1.4105033722 -0.2723689221
C -0.0247990761 0.6263913584 -0.1971382277
C 0.1754989326 -0.8545509383 -0.3198678091
C -0.7736492749 -1.6874596181 0.5395501184
C 1.6568969243 -1.1243008683 -0.1151214766
C 2.1724891167 0.1095483183 0.0408202687
N 1.1460761865 1.1328085346 -0.0090672828
H -1.8037927661 1.1959821579 -1.2068429252
H -1.1101614848 2.4852219997 -0.2073429452
H -1.9507261685 1.1157616975 0.5397919302
H -0.5686926786 -2.7421907029 0.3658734385
H -1.8247378028 -1.4900048372 0.3123181692
H -0.6015097227 -1.4881392947 1.5987772837
H -0.0247987234 -1.0821107327 -1.3800094725
H 3.1807297872 0.4661595297 0.201870631
H 1.3084786093 2.1268640238 0.0877562214
