9
0
O -1.8065545552 -1.0164985392 -1.8521001767
C -1.8344052697 -0.4759419131 -0.8020057107
C 1.2322046733 1.1989103968 2.3119647736
N 1.3163741022 0.6765894214 1.2696027452
C 1.4207035069 0.0632349548 0.0455278466
N 0.4505149532 -0.3277456946 -0.6669677917
O -0.7594872394 -0.0622032237 -0.0627993209
H -2.7275201952 -0.2053074931 -0.2235523091
H 2.417916024 -0.0985099093 -0.3413450563
