13
0
N -1.0978640862 -0.1181109188 -1.3651942602
C -0.5684710617 0.1198260969 -0.0658484693
O -1.5283408804 0.4898122023 0.8797698989
C -0.7851751434 -0.7166951353 1.1080172121
O 2.1568316485 -0.6946771419 0.3116282411
C 1.8668316038 0.4484671634 0.0567300397
N 0.6057741326 0.9267657396 -0.1112881455
H -1.9793279194 -0.6091695837 -1.3123811549
H -0.4473361659 -0.6478890786 -1.9297635209
H -1.3530810253 -1.6354262936 0.9967056121
H -0.0873589996 -0.6833836319 1.9369571604
H 2.6260744566 1.2410304214 -0.0657845593
H 0.4907164404 1.8690721602 -0.4465690543
