11
0
N 2.0116493682 0.0615676789 1.2880915695
C 1.7021460285 -0.5568762366 0.2899362908
C 1.4392190465 -1.2508074829 -0.7879766186
C -1.0472696184 0.8854718933 0.9573494845
C -1.7975344349 0.9630928987 -0.3257666426
O -2.1176134836 0.1950022997 0.8735898453
H 1.0862429618 -2.2682435002 -0.7029848278
H 1.6052844033 -0.8180722388 -1.7638614808
H 1.2487116633 0.6147817056 1.6827830238
H -2.4702191729 1.7905811545 -0.5090201028
H -1.4750697617 0.3566678278 -1.1619645414
