13
0
N -1.9616635645 -0.274259277 0.227925304
C -0.7505742475 0.1051667832 -0.4602592505
C 0.0463623356 1.3024470035 0.0346766736
C 1.3313736614 1.0487668618 0.3737839048
C 1.376877069 -0.3760977215 0.1110256204
O 2.4406419615 -1.1178999088 0.2940747918
N 0.2694221776 -0.9314200912 -0.3342932134
H -2.7672156386 0.1882786927 -0.1652914277
H -1.9079070695 -0.0450404009 1.2117309385
H -0.4501052133 2.2690035224 0.0664614348
H -0.9906448253 0.2248802298 -1.5228514081
H 3.1139483268 -0.5002834595 0.6196190751
H 0.111829027 -1.9095782344 -0.5075474434
