13
0
C -2.325210902 0.7817782811 -0.2710958703
N -1.0354641791 0.1826431459 -0.0380154443
C 1.964157478 -2.0286930674 0.6958791605
C 1.6634091352 -0.8338426752 0.2964176295
C 1.3651859271 0.3715310032 -0.1104915371
C -0.0091486569 0.8657996895 -0.3006424703
H -2.8837293075 0.8058733503 0.6672972643
H -2.8932371359 0.1551553056 -0.9622013545
H -2.2699632819 1.8008712488 -0.6790506417
H 2.0704476644 -2.2535166676 1.7508747974
H 2.1063007066 -2.8343553265 -0.0151357489
H 2.1733756279 1.062484026 -0.3280401706
H -0.0870620759 1.8892196865 -0.6952596139
