17
0
C 1.9668841928 -0.7627651834 -0.2103082657
C 1.1234734688 0.2113985486 0.5729003705
C 0.3385154115 1.2856672765 -0.106541439
C -3.0342430366 0.6490377474 -0.5015177795
O -2.4334735027 -0.4649035236 -0.7164325821
C -1.1257545628 -0.8674394802 -0.1683473441
C -0.387259708 0.1722949598 0.6015156886
H 2.0352594913 -1.729274371 0.2938080109
H 2.979944128 -0.37176613 -0.3214068547
H 1.5779153101 -0.9319551623 -1.2152496593
H 1.5595360773 0.4941867675 1.5245684116
H 0.3029110658 2.2746494128 0.3299841346
H 0.3169670396 1.2741066808 -1.1904839163
H -2.3883711302 1.2706253074 0.1676701615
H -0.5714831302 -1.2001134837 -1.0440157299
H -1.3502776298 -1.7401255346 0.4458490898
H -0.8262184849 0.428039168 1.5589967032
