17
0
C 1.8818178754 0.98545016 -0.5187762198
O 1.9555597483 -0.3600427306 -0.0003377733
C 2.8864221436 -1.1241499877 -0.471082783
C -1.3666638167 -0.8757744842 0.0867869759
O -0.697529968 -0.5851396014 1.3027802951
C -2.3127730225 0.2655649004 -0.2222645264
O -1.6205107206 1.4948246909 -0.2962189661
H 2.0676472438 1.6639386121 0.3122704576
H 0.8732589298 1.1350314866 -0.9026579548
H 2.6358952053 1.0965258759 -1.2953410305
H -0.6466954052 -0.9875563249 -0.7308348636
H 2.7224402759 -2.0774125075 0.0817728278
H -1.9266219505 -1.8137410795 0.1770281438
H 0.2440189923 -0.7239472051 1.1732683901
H -3.0960031988 0.3108048604 0.5447223506
H -2.7934634766 0.1063097093 -1.189124783
H -1.1824528556 1.6000906252 0.5536074597
