12
0
O -1.5722109463 -3.5786508245 0.2885209468
C -1.1478232392 -2.6129159285 0.6718389854
C -0.2973832788 1.0792149269 0.6616933807
C 1.0872565975 0.5392509938 0.5757311577
C 0.3449322614 0.8896163473 -0.6901550066
C -0.1212109396 -0.1713434096 -1.5418482449
N -0.4947374699 -1.023751368 -2.2148252175
H -1.0873398238 0.3913053001 0.9289183278
H -0.4407775436 2.0997491276 0.9887756951
H 1.230999625 -0.5118745146 0.7847234974
H 1.9156112382 1.1809360976 0.8422922348
H 0.6584545193 1.7755412518 -1.2261537568
