14
0
C -1.7946017512 0.2865651967 0.8411560519
C -0.3003971252 0.4830985486 0.8597819283
C 1.1569702944 -1.5119482716 -1.1023537573
O 1.8299209131 -0.3762122618 -1.0454079415
C 1.4004113816 0.7788524514 -0.7156258942
O 0.1065192216 0.9662714177 -0.4423258375
H -2.1421421874 -0.0340817887 1.8244661973
H -2.3009507317 1.2164480064 0.5795601287
H -2.0744651053 -0.4746891225 0.1117438643
H -0.0019864339 1.2300817735 1.5993091917
H 1.7245846294 -2.3217943732 -1.5249790651
H 0.0792665648 -1.471642102 -1.071321523
H 0.219162792 -0.4549539493 1.0799775547
H 2.101179538 1.5961854748 -0.7747468981
