14
0
C -0.9293604778 -1.0023615193 0.4852395074
C -1.3771503864 0.3250510189 -0.0218205191
O -0.2876399628 1.009657332 -0.6223654607
C 0.7790465754 1.1510830096 0.3058082785
C 1.2104703901 -0.1868119596 0.794617809
O 0.3252206766 -1.1391027531 0.7974986813
H -1.4747340334 -1.9293264672 0.4225746099
H 0.8972477161 -1.5294342859 -2.3571565496
H -2.1328125108 0.1899929237 -0.7974557931
H -1.8171170504 0.9573451517 0.7646629174
H 0.4655504564 1.8223105236 1.1202496452
H 1.5997541397 1.6371496891 -0.2239057324
H 2.2227237398 -0.5190486693 0.9537408546
H 0.6199867275 -0.8997989942 -2.0666632481
