10
0
C 0.6554230829 1.04450644 -0.2627507817
C 1.5816534946 -0.0407002105 -0.1347301944
N 0.9360836189 -1.1755772427 0.1500105908
N -0.3668743361 -1.4407877969 0.3256745907
C -1.1608542518 -0.4200281219 0.1984083089
C -0.6852166898 0.8735009743 -0.1033302796
H 1.0536574301 2.0257091239 -0.495331493
H 1.4883593856 -2.0130806983 0.2622843332
H -2.2153560641 -0.6257745438 0.339380616
H -1.3904596704 1.6910570759 -0.2018016908
