16
0
C -1.6432129321 -0.9703877034 0.2000922809
C -0.6039169744 -0.2478233724 -0.6390406782
C -0.7472454726 1.3049358902 -0.7481462051
C 0.6097164303 1.3849974118 -0.0804951651
C 0.7243990714 0.0595800668 0.0110975476
N 1.686247227 -0.8403695564 0.4364650525
O 2.6425087541 -0.2430540033 1.2760701888
H -2.618064399 -0.9527935955 -0.2919695746
H -1.7481272429 -0.4947362505 1.1784410893
H -1.3783942249 -2.0191084665 0.359779688
H -0.5009094666 -0.7280707842 -1.6166313793
H -0.8066006722 1.6807255709 -1.7728605918
H -1.5879306739 1.7082714699 -0.1769039944
H 1.2870395691 -1.6218239778 0.9414515848
H 1.2464642478 2.2091806866 0.2055371835
H 3.4611887589 -0.3198563861 0.7803509735
