13
0
C -1.5867677376 0.6716656746 -0.2037754743
C -0.3756127495 0.3608822898 -0.6451640314
O -0.16271324 -0.0983903908 -1.8997011776
C 0.8811819975 0.5571205491 0.1594365209
O 1.7676842608 -0.5066238446 -0.159043162
H -1.7184527495 1.0490179768 0.8003330053
H -0.9466677904 -1.7530044387 1.5123824604
H -2.4542395766 0.5712741085 -0.8411211945
H -0.7637016513 -2.2342083319 2.0523044095
H 0.7168773104 -0.4961978864 -1.9108348517
H 1.3306210158 1.5186763882 -0.1178358123
H 0.6421285669 0.5748836643 1.2257949837
H 2.6604063434 -0.2592977589 0.0822613238
