19
0
C -2.5097282833 -1.0123672761 0.463653564
C -1.3116874989 -0.4987099314 -0.2672632541
C -0.3522684662 0.2430192888 0.2692148458
C 0.8493944133 0.7701102534 -0.4698337856
C 2.1568827576 0.5070801829 0.2626087969
C 0.6283651198 2.2481424755 -0.7355945618
O 1.3471867042 3.1306526961 -0.3589772525
H -2.5495086389 -2.1041815962 0.4271958983
H -2.5006924623 -0.7044453355 1.5099042503
H -3.4322151609 -0.6450111401 0.0070939619
H 0.5249694796 -2.7419062481 0.2628694
H -1.2315810041 -0.7734809022 -1.3179411204
H -0.4172129062 0.5203211812 1.3205282743
H 0.864007449 0.2980424311 -1.4608006776
H 0.8637951816 -3.4065216411 0.2570066374
H 3.0037397868 0.9164749863 -0.2882766359
H 2.3080924714 -0.5645506835 0.3972035394
H 2.1488931691 0.9810469344 1.2452970096
H -0.2909171117 2.4727283245 -1.3171828901
