16
0
C -2.1201398541 0.0451896939 1.2416752807
C -1.8239286854 -0.675170971 0.1580023733
N -0.7944618632 -0.4289339647 -0.7420266277
C 0.4062238136 -0.4071224983 -0.3427669891
O 0.8466558972 -0.6480362236 0.9003284253
O 1.3756994662 -0.1527212359 -1.2087625226
C 2.7243959019 -0.1283671948 -0.7520748647
H -1.5649398072 0.9394066196 1.5040677447
H -1.572917685 2.8060354297 -1.2151548793
H -2.9780719777 -0.2094136652 1.8491144693
H 0.064916107 -0.7821081096 1.4590731843
H -2.4569059366 -1.5169298768 -0.1134561423
H -1.4183571978 2.0848513433 -1.3330021705
H 3.3173652622 0.1176004243 -1.6290499166
H 2.8669044378 0.6316755446 0.0164377508
H 3.025948121 -1.1007743155 -0.3621811155
