16
0
C -1.505817284 0.5660597436 0.0461660906
C -0.4702141509 0.1129037931 1.0559470497
C -0.1595189865 -1.3833510963 1.1060406507
O 1.1304792487 -1.1762476796 0.9104533175
C 1.0374046754 0.2793898763 0.78529344
C 1.5240288455 0.7630930366 -0.5524148598
H -1.5564013926 1.6551149631 -0.0104358489
H -2.4884891962 0.1950450324 0.3398716173
H -1.2978942222 0.1814140799 -0.9528572083
H -0.7484293812 0.4495466053 2.0593949576
H -1.2485382956 -2.7931562804 -1.8478111022
H -1.1122832512 -2.7071367377 -1.1177519894
H 1.6027965006 0.7399691595 1.5985446902
H 2.5954162087 0.585705791 -0.654358792
H 1.3461821618 1.8366730218 -0.6424488471
H 1.0118175197 0.2565696911 -1.3708171659
