9
0
O 2.0062581156 -0.3404217458 -0.2865927759
C 0.6879622558 -0.2084091138 -0.0741596299
N 0.1380545813 0.8913164009 0.1930253543
N -1.2019890257 0.9310103418 0.4763289962
C -0.6972087206 -2.3340962965 -0.2571532027
N 0.0075501929 -1.4045376429 -0.1884160976
H 2.3984519531 0.5317786119 -0.1683030133
H -1.5515485599 1.8558419008 0.2858085709
H -1.7513527925 0.2207205437 0.0039397982
