12
0
O -1.0118843239 -2.7056520849 -1.2565797819
C -0.7396022592 -0.6233710948 0.7191728222
C -0.2416397588 0.7939999709 0.8161223287
C 1.1996820385 0.8487373269 0.3542143197
C 0.0976521096 0.7169070656 -0.6588941863
C -0.4531835417 -0.684679868 -0.5913939073
N -0.3404685055 -1.7405314762 -1.524663905
H -1.0263435487 -1.3579948239 1.4590820903
H -0.7162490381 1.6152531498 1.3316135851
H 1.8516224052 0.0049308458 0.547306639
H 1.6767329179 1.8212243395 0.4182981693
H -0.1141204953 1.4673636493 -1.4054321737
