17
0
C -1.4705841021 -0.3069922585 0.4021619602
C -0.9379415573 -1.3173727189 -0.605084653
O 0.2764975504 -0.7751362335 -1.1110629516
C 2.2001815848 -0.2549613621 0.8651275988
C 1.5167851677 0.7370037142 0.3197173912
C 0.430385348 0.5761834577 -0.7088731449
C -0.9433184194 1.003402308 -0.173950524
H -1.0393692402 -0.4872136965 1.3889158117
H -2.5563938803 -0.3346243004 0.4916063403
H -0.7294105403 -2.2947156349 -0.1639978766
H -1.6401812153 -1.4594148726 -1.4352406371
H 2.0162885256 -1.281671621 0.5718654252
H 2.9675159776 -0.0690292777 1.6062324289
H 1.7245538953 1.7655330616 0.6075110686
H 0.7040995395 1.1598120205 -1.5949339673
H -1.5757224012 1.3402337278 -0.9983385883
H -0.8775352327 1.8077686864 0.5585103176
