16
0
C -2.4036309959 -0.3951998046 0.1250846729
C -1.0213782238 0.1500108827 0.0164114765
C -0.5505327023 1.4202232485 0.4018437185
C 0.8043152005 1.5712473296 0.1415602717
C 1.1886009563 0.2696153709 -0.4908501758
C 2.3392302276 -0.4498772033 0.1970718986
N -0.0351710307 -0.5547177647 -0.5043543855
H -2.400144001 -1.4151077102 0.5128570457
H -3.0077605776 0.2297135633 0.779487187
H -2.8747939737 -0.4106101009 -0.8603055534
H -1.2025549831 2.1531979143 0.8618863934
H 1.4509036562 0.4913935254 -1.5333274275
H 2.5740817958 -1.3981920667 -0.2926464842
H 3.2229583506 0.1849949196 0.1735165499
H 2.0896708614 -0.6459801988 1.241246471
H -0.1230355604 -1.495707905 -0.8476746585
