12
0
N 1.7982152538 0.3163446901 -0.5866977876
C 0.5407741593 0.2835856605 -0.1438413147
C -0.0118209394 -1.1033642026 0.0402046108
N 0.6743142822 -2.0825222516 -0.3620304908
C -1.4409048804 1.3768170131 0.389935366
O -2.2725604871 0.6896214978 -0.1604245045
N -0.0857508611 1.3689666863 0.162491925
H 2.2557613322 -0.5540499526 -0.7993354045
H 2.2386498431 1.200597509 -0.7611706283
H -0.9819518737 -1.1748514242 0.5258650231
H 0.2137267533 -2.9684549084 -0.1712624603
H -1.7354865824 2.1527346827 1.1151896658
