16
0
C 0.6669616514 -2.5501219771 -0.3119979984
C 0.2541552382 -1.2978561929 -0.3214947657
O 0.2940045106 3.1371310812 1.2637329081
C 0.1197217982 -0.209221079 -1.3668444997
N -0.1295209824 0.8093776394 -0.297339607
C -1.3458217352 0.389939803 0.385564914
C -0.0860110673 -0.3000101612 0.7266042236
H 0.7790115918 -3.0956201502 0.6172121051
H 1.2087485943 3.3933744198 1.3801190386
H 0.9103807778 -3.0700739081 -1.2305289084
H 0.2949913202 2.4788715478 0.5473611117
H -0.6932980854 -0.2900804893 -2.091627247
H 1.0525303766 0.0045840715 -1.8875293516
H -2.1095459459 -0.1305078868 -0.1831890519
H -1.7032211031 1.1242396117 1.0969741939
H 0.3934040602 -0.1778203298 1.6896499348
