12
0
O -1.5212316414 0.2612301919 0.1075504258
C -1.0488228117 -1.0998098215 0.1430524843
C 0.3600914356 -0.6313897384 -0.2807489434
C -0.2693512933 0.7461015386 -0.1801153428
C 0.1304126397 1.9936074261 -0.3024168326
C 1.4629302816 -0.9349638424 0.6154982615
N 2.326663353 -1.1897102218 1.3255623541
H -0.5631821275 2.8121181688 -0.1692133177
H -1.110986284 -1.5204772522 1.1466097502
H -1.5736193172 -1.7287803983 -0.5751487154
H 0.628744389 -0.9096459851 -1.2996978806
H 1.1654333762 2.2058129342 -0.5271792436
