8
0
O 2.0753718347 -1.4291563975 0.8970446989
C 0.8368978481 -1.0466384536 0.8624066851
N -0.0970684779 -0.7060686788 0.0871713649
O 0.0186735412 -0.870189091 1.8201395681
C -1.7569329788 1.8229831306 -1.2130343727
N -2.1896489635 2.7450049437 -1.7346388336
H 2.4448068744 -1.4681123454 0.0061512836
H -1.3377136781 0.9598858919 -0.7285563943
