9
0
C -2.350443583 -0.8213602059 0.0258261824
C -1.1376973986 -0.34209653 0.0339760549
C 0.0464632193 0.1253154678 0.0423874851
C 1.2305589695 0.5928748646 0.0503565827
C 2.4435173928 1.0716060048 0.0577510772
H -2.6962597559 -1.4760734798 0.8174786813
H -3.0422767235 -0.5782677657 -0.7723789614
H 2.6683324306 2.0154903444 0.5409625546
H 3.2574934488 0.5383162998 -0.4196616567
