15
0
O 0.3993529318 -1.2838194661 -1.4764131117
C -0.0672678424 -0.4887337012 -0.4676005187
C 0.922511824 -0.2225693502 0.6334223271
C 2.290466627 0.2160721897 0.1847733245
O 2.7161474207 0.1220850136 -0.9378399318
C -1.3338586088 -0.0884536773 -0.4818917793
C -2.0649034618 0.6844147012 0.5690908109
H 1.308623215 -1.0146814758 -1.6672903552
H 0.5531294993 0.5141930012 1.3474572512
H 1.0920857773 -1.1407865063 1.214916232
H 2.9365998362 0.6270756624 0.9851531605
H -2.9071859426 0.1078055257 0.9609061727
H -1.9056748793 -0.3852763305 -1.3558607114
H -2.479623297 1.6064964559 0.1538769146
H -1.4376800995 0.9592079576 1.4171632147
