15
0
C -2.5413445986 -0.2248679244 -0.6734523022
O -1.791085109 -0.1612199507 0.5373222517
C -0.4902729249 0.1299470288 0.4009376478
O 0.0263403783 0.3127608908 -0.6717307274
C 0.206981152 0.2209534055 1.7238932057
C 2.8114743773 0.2130164396 -0.5421554868
O 3.0432648584 -0.3925751803 -1.6734236556
H -2.1445058218 -0.9978106977 -1.3317184191
H -3.5600737862 -0.4640389563 -0.3790819603
H -2.5106407754 0.7317720907 -1.1951057466
H 0.0644481066 1.2285590341 2.1199602789
H -0.2136596214 -0.4853034902 2.4371581659
H 2.5794205266 1.2524653235 -0.8545064123
H 1.2715746745 0.0491505056 1.5715950005
H 3.2513665635 -1.3164855189 -1.4921598403
