14
0
O -0.5877671121 -1.0458945147 1.5926645176
C -1.6034865332 -0.8325952745 0.7819122331
C -1.2343555722 0.1817446967 -0.2459938056
C 0.1050231266 0.9292083088 -0.2631405225
C 1.3095811906 0.1440084419 -0.7758271118
O 1.9265465279 -0.6852159654 0.1853750228
H -0.8566999294 -1.6978519132 2.2486497077
H 1.0130148009 -0.4431532167 -1.6579360306
H -1.4140799815 -0.332927333 -1.2008010968
H -2.0714590938 0.8904843336 -0.1999215945
H -0.0232378505 1.7951141788 -0.9185548915
H 0.3379251627 1.3269548604 0.7289475414
H 2.0803996372 0.845419619 -1.1022701244
H 1.2429386267 -1.0501102218 0.7521691551
