11
0
O -0.1959808392 2.0730729134 1.6397194724
C 1.0348991198 -0.230359614 -0.2810654626
C 1.1608438604 -1.2258320796 -1.1546405228
O -0.1985103235 -1.5401596456 -1.3147935906
C -0.4146291901 -0.4853481792 -0.3840912511
N -1.4864771826 -0.0534312233 0.0730350721
H -0.8463683752 1.5020784344 1.2047355166
H 1.6449526045 0.4654593913 0.2640837496
H 1.9183509915 -1.7735355864 -1.6942465861
H -0.4000132432 2.0239933457 2.5737632018
H -2.2942184222 -0.5470277567 -0.297226599
