10
0
N 2.024552155 -0.4682266028 -0.0416597737
C 0.7961901017 -0.6108372414 -0.1014576951
N -0.0323235552 2.8781106924 0.3458675948
N -1.0921124432 2.6751423923 0.4868229781
O -0.1072945571 -0.2379985559 -1.158724126
C -1.0969066948 -0.7583067405 -0.326374168
C -0.3312077078 -1.134831669 0.6957742195
H 2.3924052905 -0.024083096 -0.879950748
H -2.1334778224 -0.7479099477 -0.628099048
H -0.4473997668 -1.6005022312 1.6563787662
