16
0
C 1.7215167676 1.2219203768 0.0781023321
C 0.5030819671 0.6762797555 -0.5022708358
N 1.74279982 -0.0003889142 -0.775337453
C 1.1390135114 -1.0922453371 0.0175608059
C -0.2693839582 -0.4438797427 0.1574938119
C -1.356299596 -0.4695030069 1.0107338722
C -1.6268933399 -0.9988720993 -0.3095680116
H 1.903207157 1.1311443056 1.1464605552
H 2.1941915221 2.0587173056 -0.4175834949
H -1.4228252963 1.9896663868 -0.5262283604
H 1.5800150703 -1.1623098081 1.0106209977
H 1.1566900242 -2.0398050362 -0.5158991295
H -1.956177596 2.0885003834 -0.0054309222
H -1.8508082958 0.2633928482 1.6284422334
H -1.5924622163 -2.0708347971 -0.4904757163
H -2.2187665411 -0.4393676203 -1.0386776846
