17
0
C 2.5620552748 0.5495973826 -0.4042938197
C 1.8003606087 -0.6103491117 0.1850180179
O 0.257398968 0.1112958328 0.4078092452
C -0.7327282837 -0.9378331665 0.5588097383
C -2.0350562874 -0.2114248887 0.8558671903
C -1.8755625013 0.5292282286 -0.5083483346
C -0.5839192271 -0.2436703653 -0.720886767
H 2.291726497 0.7494537037 -1.4464365776
H 2.5279452615 1.4975374134 0.1508088876
H 3.6071597622 0.2207092781 -0.4188493799
H 2.0280912061 -0.633401332 1.2633082362
H -0.3302499174 -1.8849490638 0.8855628101
H -2.0321087374 0.3947606338 1.7604753308
H -2.890368468 -0.8852239398 0.8672187759
H -2.6455701104 0.2539561495 -1.2271690011
H -1.7668870822 1.6124256068 -0.4809759705
H -0.0388459634 -0.5346323614 -1.606359382
