11
0
C 2.0057171255 1.17587589 -1.0758094748
C 0.9826105055 0.6168422012 -0.4540109792
N -0.1281373891 1.2158780672 0.1067729371
C -0.8276368711 0.249006716 0.5792613405
C -0.2040532041 -1.1036510325 0.354902286
O 0.8957008969 -0.7771275848 -0.2804192646
H -3.2826192072 -2.4640743286 1.619914205
H 2.0341311766 2.2492599829 -1.1916234967
H 2.8081752052 0.5672388192 -1.4673414356
H -1.772051839 0.4094920631 1.0835267456
H -2.6047943992 -2.4578727939 1.3061701369
