13
0
C 1.8834657662 0.1501921893 -0.4856803505
C 0.5481750502 0.1916078249 -0.4385141165
C -0.2735830799 -1.0116365036 -0.4298167212
N -1.4990940957 -0.615179914 -0.3763337119
C -1.7059594377 0.8501039209 -0.3304282864
C -0.4135923664 1.2845109097 -0.3745965298
H -0.4390024865 -0.3714136234 2.8043381769
H 2.4200088794 -0.7908199055 -0.5199420876
H 2.4733826569 1.0590256286 -0.4896703264
H 0.0387044522 -2.0475985094 -0.4594012051
H -2.2861667972 -1.2454603326 -0.3556880709
H -0.663650459 0.1613593443 2.3306681534
H -0.1204130827 2.3245379708 -0.360630924
