19
0
C -2.2391176844 -0.8338020819 0.558235644
C -1.3844200909 -0.1454401581 -0.4987518147
C 0.6315919822 -0.0323269332 -1.755949012
C 1.5828246309 0.9537607439 -1.2112988925
C 1.4448447028 1.0672801408 0.3127071416
C 0.9035129779 -0.3144288425 0.6822092593
C 0.0645095597 -0.7065737219 -0.5507799266
H -3.2474176524 -0.4160819774 0.564303554
H -2.3206084236 -1.9039566201 0.3565058211
H -1.8271192629 -0.7130494534 1.5615269083
H -1.8405329103 -0.2714077719 -1.4820659361
H -1.3574633484 0.9318969785 -0.3068206656
H 2.4992782244 0.3776819114 -1.4638104654
H 1.6740293421 1.8770114751 -1.7850681195
H 2.3804863377 1.3138203815 0.815761147
H 0.7271096296 1.8520502721 0.5651187532
H 0.3384952996 -0.3216432003 1.6155050071
H 1.7296567533 -1.0208462204 0.8035553618
H -0.0257090673 -1.7859629222 -0.7021387652
