9
0
O -1.7187324848 0.6196388395 -1.0785220528
C -1.5429183575 0.0411799973 -0.0493145705
N 0.9792835725 0.7205492635 0.6879081827
C 1.1671097234 -0.2036020029 -0.1384467992
N 0.3319410942 -1.3716601035 -0.0972985163
N -0.8778980151 -1.2311334138 0.013212511
H 1.6801720896 1.4518936722 0.6126452583
H 1.9770685382 -0.2983139937 -0.8619464808
H -2.0127691604 0.3000497413 0.9122554676
