13
0
C 2.6489416868 -0.4700334361 -0.3486515709
C 1.260729937 -0.9613059512 -0.3905322825
N 0.1945182288 -0.502994532 -0.6265930362
C -1.0264288053 -0.0823784617 -0.6834755005
C -1.6461954266 0.4186087444 0.5341687633
O -2.9597017516 0.7635719672 0.4195494316
N -1.0139138158 0.5341361929 1.6242852501
H 3.3534247308 -1.2483374776 -0.6342191237
H 2.8507351853 -0.20848546 0.6925455255
H 2.7929183368 0.4188434423 -0.9671464716
H -1.5418568028 -0.1277305794 -1.6330278735
H -3.2906472963 0.5426946069 -0.4540494315
H -1.6295962072 0.8753839442 2.3563693198
