15
0
O 0.8659032664 0.5030888768 0.772185434
C 1.5525734056 -0.0925209878 -0.2379828592
N 0.6865948602 -0.9109353196 -0.9282214222
C -0.490142003 -1.1665955788 -0.1299960956
C -0.513456294 0.1041432788 0.7289929681
C -1.358520779 1.2185516077 0.1474266193
N 2.7717338181 0.0754563564 -0.5089240468
H 1.1100162081 -1.6364245626 -1.4788113287
H -1.3880277319 -1.254124854 -0.7438252275
H -0.3964445225 -2.066568377 0.4885415222
H -0.8107047845 -0.1087639813 1.7564814911
H -2.4165152085 0.9519609976 0.1916638141
H -1.2119401941 2.1393273754 0.7120237691
H -1.0879063832 1.4012537361 -0.8942769083
H 3.1864553422 0.7550484322 0.1175722706
