19
0
C -0.5962722921 -1.6181697224 -0.7373500544
C -0.1580403723 -0.2339830072 -0.4022763119
C 0.3971983406 0.1813181641 0.9460732618
C 0.4493979799 1.7086967354 0.7711017136
O 0.3612054656 1.9692071954 -0.6387990301
C -0.0995334264 0.8200675768 -1.2048280066
C 1.7594893134 -0.4490856225 1.2336748235
H -1.4343749753 -1.9325457126 -0.1080461273
H -0.915255664 -1.6903981245 -1.777925541
H 0.2083304006 -2.3428463641 -0.5848316403
H -3.0557435643 0.1095594691 -1.3115701591
H -0.2931870313 -0.079372183 1.7540809433
H -3.7188328498 0.0845608376 -1.6524777319
H 1.3726827573 2.1563461411 1.141091398
H -0.4022556061 2.1968747265 1.2536992978
H -0.3497299348 0.8980741039 -2.2544517635
H 2.1638181314 -0.0920009207 2.1835816152
H 1.6892584045 -1.5370741276 1.2915673694
H 2.470490923 -0.1984551651 0.4428939438
