18
0
C -1.3013392428 -0.1660609395 -0.9122597749
C -1.7010503095 0.5345820742 0.3783327122
C -0.5927203912 0.5662073859 1.4237207354
N 0.5679421995 1.3101694602 0.9994822446
C 0.8548990546 2.3835083872 0.5613000137
O 1.2489443034 3.3953353842 0.1306313463
C 2.0848826853 -1.8537935565 -0.3058081972
H -2.1236837086 -0.1618676661 -1.628796238
H -0.4461126442 0.3224531826 -1.3823308696
H -1.0256159512 -1.2061926331 -0.7238334295
H -2.0200143494 1.5604141247 0.1695076193
H -2.5602829603 0.0282522425 0.8279256842
H -0.9638464942 0.9970072368 2.3569815193
H -0.2605502058 -0.4496239796 1.6469672571
H 1.9002637047 -0.8105316272 -0.0522348824
H 1.8524662893 -2.0202790833 -1.3568253105
H 1.4567346941 -2.4970365667 0.3098179081
H 3.1316883264 -2.0919044264 -0.1233913378
