13
0
O 0.1294177744 1.412823608 0.9089611285
C 0.7471492636 0.9933873653 -0.2692289061
N 1.6647614342 -0.0264678122 -0.054178034
C 0.5785513272 -1.0756592169 -0.3415242622
C -0.6623006981 -0.1188862683 -0.6189630785
C -1.080223119 0.6199195073 0.6872124195
N 0.0645594589 0.9680308702 -1.3607731189
H 1.9360923605 -0.0622405454 0.9207192127
H 0.4812134197 -1.7621468381 0.5029792428
H 0.8370041571 -1.6189669571 -1.2471157775
H -1.4708183533 -0.5529939738 -1.2017539519
H -1.9326589994 1.2758714592 0.5173133606
H -1.2361280256 -0.012031198 1.5621537653
