13
0
N -1.8625024383 0.2069662616 0.5693214565
C -0.6738594162 -0.0153000152 -0.304357807
C 0.0726893164 1.11850847 -0.6945441533
C 1.4573072017 0.8988579415 -0.67649243
C 1.4809887165 -0.3696899561 -0.1095591076
O 2.544203059 -1.1733470412 0.0601866549
N 0.2689469393 -0.9018809699 0.2508982196
H -2.4686107706 -0.6087436752 0.6146754424
H -2.4007461134 0.9645177309 0.1542795685
H -0.4155430303 2.0440481198 -1.0004655255
H -1.6134102253 0.4769238067 1.527961938
H 3.2760577576 -0.6765788253 -0.3248851493
H 0.1488550038 -1.9034378475 0.2503038929
