9
0
N -1.4408885837 -1.0632911113 -0.6992641475
C -0.7620885543 -0.3489582283 0.0634323177
O 0.3620348286 -0.7961341082 0.762621462
C 1.5875167973 -0.3132393612 0.5610904809
O 1.5240842693 0.5593562665 -0.4200645279
C -1.171661625 1.0014723678 0.3940671274
N -1.4854258303 2.0665335174 0.6771216319
H -1.0263639207 -1.9873830081 -0.8089210097
H 2.4074126187 0.9162056655 -0.5558473347
