11
0
N -1.8021324401 0.1928282099 -0.1791363161
C -0.4840667963 0.3331504675 0.377508951
C 0.5265462938 -0.7658608298 0.2379600988
C 1.6128835676 -0.2030775199 -0.2703134023
N 1.3795369405 1.1978921166 -0.5068271114
N 0.2219811327 1.505778079 -0.1877696372
H -2.381153024 -0.4129532277 0.3824409647
H -1.7700406177 -0.1678938564 -1.1226136156
H 0.3751334459 -1.7941645077 0.5285692359
H 2.5777310155 -0.6183076314 -0.5186163087
H -0.5872515179 0.5855546998 1.442105141
