14
0
O -0.7342369532 1.2033330895 -1.0946770504
C -0.2854572354 1.2945244951 0.2532436236
C -1.23682652 0.2648309452 -0.1491421557
C -0.5354434369 -1.0701452997 -0.1936392056
C 0.9591970112 -0.7019371221 -0.2235765035
C 1.0644310745 0.6617381169 0.4835852018
H -0.581588802 2.1953539181 0.780957184
H -2.300808497 0.3347280787 0.0528118069
H -0.7929872665 -1.6294932688 0.7109505403
H -0.8352295821 -1.6743556166 -1.0518217985
H 1.2882094951 -0.6017946353 -1.2571982292
H 1.5837191344 -1.4623819895 0.245447175
H 1.2145410261 0.5433379931 1.5611118425
H 1.8854605518 1.2704572954 0.1006305688
