12
0
C -1.9588413092 -0.8740092897 -0.1876479398
N -0.7637592331 -0.0997700563 0.03272567
C 0.3471127212 -0.6186023585 -0.2779815878
C 1.6138397886 0.0791236106 -0.1277083742
N 1.6381080761 1.2960364579 0.2721649823
C 1.5286901084 2.4683738868 0.5016123636
H -1.767146676 -1.8719912653 -0.6061331695
H -2.4964204968 -0.9847317963 0.7569778338
H -2.6193061611 -0.3295640157 -0.8665215661
H 0.4225393685 -1.6340014487 -0.6904009861
H 2.5539307368 -0.4030229275 -0.3580775682
H 1.5349400768 2.8688522026 1.5128153422
