14
0
C -1.9182951938 -1.1166647311 -0.0878340196
C -0.5186747432 -0.8891195222 -0.5575991433
C 0.6996396539 2.9767924472 1.3565738137
N 0.3786682304 1.8667484676 1.2007125656
C 0.3651439146 -0.0540784308 -0.0383646464
O -0.0319587887 0.6216007122 1.1452227499
C 1.76274168 0.1960520932 -0.4828017495
H -2.2049873631 -0.4137329672 0.6915837285
H -2.617645241 -1.0160121196 -0.9203035391
H -2.0319716094 -2.1291369458 0.3071644
H -0.1730004789 -1.4743109378 -1.4026065864
H 2.4686144243 -0.004514498 0.3259533472
H 1.9041582498 1.2305794251 -0.8000287476
H 1.9956982651 -0.456284993 -1.321932173
