14
0
O -0.6742382803 -2.8335876808 1.8786974121
C -0.1448273947 -2.4482553666 0.7626432903
C -0.7086714997 1.2886936014 -0.5989101983
C 0.4494275228 2.2549065632 -0.5803757681
C 0.7066307542 0.7902636331 -0.6250301263
O 1.2490580203 0.2142525092 0.5117502989
H -1.1315527602 -3.6889098316 1.8477549975
H -0.3469954056 -3.2254177328 -0.0109389296
H -1.3081010058 1.2142628729 -1.4975170001
H -1.2501978047 1.1570607601 0.3289280004
H 0.6463203426 2.84807811 -1.4637463807
H 0.6666115159 2.7430094583 0.3603855034
H 1.0667886187 0.3827789143 -1.5683457707
H 0.8356183764 -0.6628568108 0.6300816711
