16
0
C 1.1187456592 -0.7757278651 -0.2129435434
C 0.1994164721 0.0154542494 0.7101187793
O 0.7090566339 1.2999346372 0.9213919653
C -1.2207325494 0.1057280935 0.1658763943
C -1.9453888377 -1.1695851807 -0.1592021484
O -1.7240600313 1.1928544157 0.0094197227
H 1.1406035815 -0.324474755 -1.2065157157
H 0.8067404747 -1.8178399003 -0.2992857231
H 2.1299163134 -0.7534457925 0.1921388841
H 0.1237883889 -0.5151484968 1.6728533204
H 2.2843852428 2.2607960026 -0.9407071502
H 2.608923093 2.5507297671 -1.5473604272
H -1.5967200083 -1.5385415853 -1.1270396079
H -1.7390906681 -1.9448321314 0.5801025633
H -3.0144958304 -0.9797067114 -0.2220194316
H -0.0133979343 1.9108592531 0.7150671182
