10
0
C -1.2438766116 0.1838909572 0.5885730752
C -0.4373792733 1.1171061002 1.3321783204
N 0.902363152 1.1307253525 0.938600149
C 1.3388503213 0.3626952022 -0.0056514119
N 0.5688693768 -0.5085172184 -0.6913745118
C -0.7500245424 -0.6072386472 -0.3961797188
H -2.298708907 0.1059682936 0.8258323563
H 0.976979155 -1.0768472458 -1.4149597708
H 2.3863689145 0.3882316361 -0.2985124992
H -1.3212325853 -1.3208994305 -0.9785029885
