17
0
C -1.7826387949 -0.7293602235 -0.2143094947
C -0.4807718147 -0.1335962889 0.2801132964
O -0.5763555686 -0.1474906214 1.703259943
C -0.2042809735 1.2998671742 -0.2182783744
C 1.2435347337 1.5677077391 -0.32917676
C 1.8570836921 0.2249566938 -0.1825922079
C 0.7782189484 -0.8669701997 -0.2055413931
H -1.9050853516 -1.7412621492 0.1750788332
H -1.8033812953 -0.7706905886 -1.3044982539
H -2.6264986343 -0.1300131157 0.1305015463
H 0.1737179475 0.3133289138 2.0842696385
H -0.4282869164 1.3619936426 -1.3035103892
H -0.806611134 2.0847751458 0.24313231
H 2.2839838843 0.3489118032 0.8321818204
H 2.7345931439 0.0651433456 -0.8110407244
H 0.9995686656 -1.733779534 0.4175412834
H 0.6326444677 -1.2194187368 -1.2300840733
