14
0
O 1.1781838892 -0.2269780553 -1.2908430039
C 0.7606505889 -0.2898255368 0.0615885951
C 0.6391339263 1.1163702436 0.6266312591
C -0.6070527414 1.8395956943 0.6946623003
C -1.1630183676 -1.5794596762 -0.8798451046
C -0.5214417062 -1.0590002544 0.1524288465
N -0.2693038756 1.3946252561 1.8088751753
H 2.0453925438 0.1793251325 -1.3259509447
H 1.5154839384 -0.8283026209 0.6550550816
H 1.5761410451 1.6731946749 0.626854893
H -1.4143622357 2.4024063972 0.2488282854
H -0.7798563102 -1.4774521515 -1.88721113
H -2.086630765 -2.1278605315 -0.7420330578
H -0.9161729298 -1.1676565723 1.1578318048
