19
0
C 1.8847189138 -1.4560149635 0.2955433001
C 2.1737286433 -0.011272846 0.0059850864
C 0.790812122 -0.5558262642 -0.1958694956
C -1.3731738237 1.51013801 -1.0102484084
C -1.3592390679 0.8480777318 0.343312755
C -1.7219902693 -0.6019496296 0.4979364393
C -0.3073309968 -0.1534804301 0.7319266946
H -1.0999628817 0.8131655015 -1.8038540962
H 2.279881699 -2.2027455285 -0.380599024
H 1.8486874819 -1.7667123023 1.3324389127
H 2.3297456875 0.6511294957 0.8485098594
H 2.768381584 0.2288745952 -0.8656270988
H 0.4916578961 -0.710114175 -1.2263607656
H -2.3694621144 1.8930303183 -1.2421809616
H -0.6732980068 2.3479763296 -1.0495913203
H -1.6870052334 1.4946854277 1.1506637357
H -2.3224593448 -0.9082394588 1.3446209203
H -1.915629574 -1.1606896696 -0.4109155721
H 0.0052192854 -0.1123131421 1.7714290391
