13
0
C 1.2202238935 0.3447353861 -0.421413196
C 0.5170411236 -0.2865152827 0.77552789
C -0.8785869716 -0.5782458399 0.214344937
O -1.8617793248 -0.5716668576 1.2192710392
C -1.123798923 0.4451500494 -0.8765834978
N 0.0675207334 0.8740766211 -1.1770291519
H 0.213402171 1.5419961979 -1.9185696343
H 1.9127433053 1.1469264067 -0.1642647023
H 1.7569904465 -0.3894908531 -1.0288463918
H 0.416013211 0.4342418408 1.5889276348
H 1.0280616626 -1.169574974 1.1551569002
H -0.8742810441 -1.5521472289 -0.3070156285
H -2.6646452833 -0.2335154659 0.8126848013
