14
0
O 1.4922277522 0.6044186281 -0.4145742767
C 1.8490250244 -0.2464902608 0.5963665047
C 1.2100146374 -1.3810313249 0.8106799018
C -2.0144668056 0.6010069495 0.3566445688
C -2.060841257 0.4479426474 -0.9615093844
O -1.0166158196 0.3694076983 -1.809404272
H 2.0205927387 1.4022766224 -0.3893373754
H -0.1834638744 0.4584066686 -1.3222060367
H 2.689643907 0.0789171734 1.2007199462
H 1.5256643005 -2.027484663 1.6158790135
H 0.3698686789 -1.6841317134 0.1984679257
H -2.9345292061 0.6463790818 0.9209072276
H -1.0773371131 0.6735930683 0.8961318793
H -3.0023659632 0.3679554244 -1.4946546224
