11
0
C -1.3343754637 0.6160780342 -0.0561435077
C -0.97737555 -0.507254777 -0.9789754814
O 0.136076036 -0.9257657153 -1.1481518056
C 2.4837115169 1.0582826146 -0.1537174324
O 3.3508957296 0.4195431107 -0.4719005762
H -1.8584649782 1.394487802 -0.6166727151
H -2.0309528644 0.2500273015 0.7030473998
H -0.4454077004 1.0285223156 0.4167210872
H -1.8286312743 -0.9635720539 -1.5263471804
H 1.1097718487 -1.4987326694 2.0515407532
H 1.0010087 -1.386909963 1.3220014586
