16
0
C 1.9255483843 -0.0311832723 -0.3214148911
C 0.6825775506 0.5540828943 0.3362953197
C -0.6154461832 0.0201037426 -0.2446902154
C -0.8237208712 -1.467475455 -0.0760898892
C -2.2816351071 1.7517237383 0.0124127113
O -1.717655506 0.6860966769 0.4554105228
H 2.0189727487 -1.1021695637 -0.1349507341
H 1.9121735652 0.1217488959 -1.4034061764
H 2.8243163829 0.4473001013 0.0684958729
H 0.6882841427 0.3535310913 1.4116249484
H 0.6819335847 1.641679685 0.2190497616
H -0.7044943786 0.3100506088 -1.2980066367
H -0.0848682181 -2.0226641964 -0.6543748671
H -1.8149033142 -1.756906209 -0.425243245
H -0.7291151692 -1.7522251376 0.9733171113
H -1.7844956119 2.0047513997 -0.9687805929
