19
0
C 2.7804335352 0.0953140775 -0.3685060575
C 1.6905543623 1.1287816959 -0.0900987775
C 0.3510500589 0.4983787724 0.1429408543
C -0.7306920496 0.7194293707 -0.5939288238
C -2.0925517134 0.1089928633 -0.4019447255
C -2.1304099252 -1.1144799235 0.4988693858
O -1.4198680452 -2.2115732553 -0.0384987431
H 2.8697675223 -0.6153478987 0.4566411965
H 2.5552610308 -0.4731075361 -1.2734120225
H 3.7530284794 0.5722994709 -0.5014765527
H 1.9698519417 1.71443399 0.79230513
H 1.6205308188 1.8334188878 -0.9229879135
H 0.2993964922 -0.1892105071 0.9869985953
H -0.6453990761 1.4175689637 -1.424736727
H -0.5536130312 -1.8985701481 -0.311370078
H -2.4955913972 -0.169966638 -1.3806574677
H -2.7726910684 0.8697449419 -0.0014290491
H -1.7613431692 -0.8615260052 1.5023966022
H -3.1618067661 -1.4513731222 0.6141331738
