14
0
O 1.9724799242 0.2895139795 0.7249193436
C 0.6261144977 -0.0606378474 0.7510533324
C -0.3451802323 1.1007253353 0.7811654298
N -1.3609885161 0.6742535716 0.068736895
C -1.2727006907 -0.5984609906 -0.651774937
C 0.1857517452 -0.943850923 -0.4068152766
O 0.8686752549 -1.7116485339 -1.021225038
H 2.4522521576 -0.442197007 0.322597134
H 0.3698282951 -0.6318843117 1.6666534194
H 1.3934992707 1.5381638084 -1.6587169586
H 1.0502229822 1.5177134398 -2.3211262484
H -2.1831354322 1.2482855717 -0.0367493659
H -1.4888375564 -0.4853713692 -1.714607995
H -1.9297146999 -1.3666347234 -0.2353627348
