12
0
O -2.2904345971 -0.2741843585 -0.397126796
C -1.228569737 -0.8944212012 0.2679268304
C 0.0852919427 -0.4632904273 -0.3738782852
C 0.3989792464 0.9991893036 -0.2421618143
C 1.6970672006 1.1992288816 0.125636747
C 1.3586133839 -0.7210939424 0.3198548934
N 2.3823369469 -0.0257541771 0.4397107654
H -2.0954809888 0.669979487 -0.4159526638
H -1.2034223694 -0.6447891375 1.3347359988
H -1.361838055 -1.971800574 0.1676382878
H 0.1948529231 -0.8091554433 -1.4040442143
H 2.1871811036 2.1451575891 0.311227251
