14
0
C 2.3337350634 -0.554186999 -1.0840247038
O 1.4402554212 -0.2085727951 -0.017285121
C 0.2111344085 0.035736621 -0.3333910181
C -0.5500603819 0.408527597 0.8956018076
C -2.0397039336 0.1422042654 0.6946011422
O -2.5230380997 0.7957422041 -0.4537484778
H 3.1273064856 0.1913107121 -1.1088135077
H 1.7800579443 -0.5689571406 -2.0212765889
H 2.7541768674 -1.5332250339 -0.8585967078
H -2.2133102486 -0.9408842195 0.6334089814
H -0.4047670725 1.4945309027 0.9899585471
H -0.1538298929 -0.0585321998 1.8048039407
H -2.6123915064 0.5174942695 1.5443769965
H -1.8986600547 0.5923218163 -1.1606392902
