13
0
O 0.9733588907 -1.0783047608 -0.5457304453
C 0.4141121122 -0.1816618441 0.3875047176
C 1.0824251261 1.1647186413 0.5906640061
C 0.0228452266 1.8449668855 0.1616427788
C -0.7854191056 0.6162237423 -0.1909509881
H 1.7277590864 -1.5139431535 -0.1454876702
H 0.1701456261 -0.6988629117 1.3233254104
H -1.0735594531 -2.5984861948 -0.8492504918
H 2.0507762073 1.4521411785 0.9816237186
H -0.2061610475 2.9019891544 0.1013670068
H -1.7221684283 -2.9687501464 -0.8463594921
H -0.9149241784 0.440379855 -1.2594556706
H -1.7430980625 0.4847395542 0.3172711199
