15
0
C -0.5146191393 -1.2018151848 0.9370700722
C -0.214693237 0.1829441676 0.4223915806
C -1.4103530827 1.0979802263 0.3525302328
C 0.9358333226 0.4374492476 -0.4379549251
O 0.9723256467 0.7932650962 0.9498076973
N 1.7823556819 -0.5701253937 -0.946015133
H -1.0102553141 -1.1362341585 1.9079552704
H 0.3882244031 -1.7959839224 1.0710923866
H -1.1807367184 -1.7300103263 0.2518389745
H 0.8920508298 1.3001213146 -1.0989552528
H -1.1217387225 2.0838326207 -0.0115662359
H -2.1724680595 0.6879329838 -0.3136910653
H -1.8533345354 1.2156361284 1.3442202174
H 2.7041684518 -0.2107692346 -1.1489318352
H 1.8713574731 -1.355080565 -0.3182129847
