16
0
C 1.9573883916 0.2664359061 0.2644003297
C 0.4496170327 0.3314867191 0.172172995
C -0.1521201206 -0.7261081324 -0.73546823
C -1.6652723899 -0.6335963763 -0.8696717051
C -0.9033660512 0.9253807457 2.0930914729
O -0.0792330697 0.1238913259 1.5198355637
H 2.3387187505 1.0291076528 0.9437004659
H 2.3986133161 0.4288690874 -0.7201265192
H 2.2765041088 -0.7114918932 0.6280470026
H 0.1161700482 1.3307840258 -0.1334682614
H 0.3185348461 -0.618104724 -1.7169493379
H 0.1385558333 -1.7104925239 -0.3571712737
H -2.0403972743 -1.3982166389 -1.5506517167
H -1.9698540386 0.3395312916 -1.2626349629
H -2.1606878633 -0.7770563221 0.092280427
H -1.0820035199 1.7796318564 1.3793677503
