8
0
O -2.2798630589 1.2367187165 -0.1596218339
C -1.4822454443 0.7935712288 0.624632666
C -0.5497769364 -0.2904458261 0.2464960561
O 0.5680560968 0.1994590022 -0.1933723515
C 1.5088437502 -0.7904274277 -0.6139144712
O 2.5678521969 -0.469182514 -0.9938643507
H -1.4677804848 1.0789042237 1.6988418747
H 1.0597828805 -1.7885294033 -0.5080395897
