10
0
N 2.0313621426 -0.1263610661 0.2334992302
C 0.7948919168 -0.0198416407 0.0652367939
O 0.2128468323 0.9243984332 -0.668670148
C -1.2141009735 0.7217712183 -0.6180100258
C -1.4888351321 -0.4711028845 0.233402662
N -0.2765161419 -0.8260884004 0.5793504168
H 2.2681464191 -0.9118425066 0.8276839396
H -0.0769664262 -1.6167948024 1.1732444529
H -1.591583095 0.5704871206 -1.6320088624
H -1.687521542 1.6129845286 -0.1993374593
