17
0
O 1.3802886833 0.0425951356 -0.2292313605
C 2.2679732637 -1.3562036852 -0.4802497784
C 0.1983815869 -0.2424478332 0.5672097209
C -0.5154051648 1.0666823508 0.8943914047
C -1.5952148072 1.1603128374 -0.2057454311
O -1.3359348313 0.0827194219 -1.095668221
C -0.8113297557 -0.9665989074 -0.2967062561
H 1.0690068231 0.3118480362 -1.1041976199
H 2.7475099261 -1.0286085647 -1.4186280576
H 3.0300647247 -1.1454442864 0.2865994624
H 0.5667850356 -0.8055631687 1.4185593823
H -0.9582842249 1.0166469329 1.8887218495
H 0.1830544138 1.9027152665 0.8823853861
H -1.5583552219 2.0852033231 -0.7802927899
H -2.5993442401 1.0566587842 0.2212516177
H -0.3432211468 -1.7199099745 -0.9275519811
H -1.5925910645 -1.4251886687 0.3234116717
