12
0
C 1.183721979 -0.75859471 0.2009007628
C -0.2516975407 -0.5588589524 0.7047448538
C -0.1043359922 0.924242332 0.455932964
O -1.4419252045 1.0416927063 -0.3718590061
C -0.6882009236 -0.298807746 -0.7179195611
C 0.6980833603 0.4135574867 -0.7791318808
H 1.4029666556 -1.7160108322 -0.273544464
H 1.9822818408 -0.4973419528 0.8964213406
H -0.8142004351 -1.057280874 1.5031857634
H 0.0355735144 1.7572147534 1.1401574206
H -1.2399921547 -0.913702547 -1.4244673884
H -1.1794360992 1.6263783361 -1.1124508049
