14
0
C 0.5073687235 0.0098651533 -1.1017834721
C -0.09966773 -1.0997341531 -0.2929517285
C -0.9579819059 0.0426847681 -0.7526286814
C 0.2500492227 -0.876821184 1.1577742492
N 0.3011181772 0.5793401565 1.2302398793
C 0.7691745186 1.1095828194 -0.0464975138
C -0.6693186805 1.1419428513 0.2963457022
H 0.9841634805 -0.1045092444 -2.0625953032
H 1.2201016985 -1.2939970045 1.4345511359
H -0.2247148775 -2.0813935867 -0.7286038967
H -1.821796883 -0.0419579718 -1.3930817927
H -0.510949673 -1.2525121987 1.8443108674
H 1.5232807829 1.882741431 -0.0714238126
H -1.3201828538 1.9465841637 0.6060773668
