13
0
N 2.7056372732 0.408184813 0.2379904942
C 3.3814846212 -0.1290723624 1.0153511158
C -0.8314554599 -1.3380928829 0.7261581439
C -1.5593241224 -1.2929514064 -0.3788254674
C -0.2721441804 1.6711587362 -0.451652508
O 0.6332024893 1.5458380605 -1.2345979526
H 2.0779131193 0.8682060842 -0.4211448152
H 0.2482300547 -1.4370615787 0.6953504543
H -1.2884206969 -1.2914334074 1.7083984768
H -2.6400301929 -1.2091869069 -0.345688119
H -1.1035504162 -1.3530325847 -1.3609703096
H -0.1262828797 1.5389831094 0.6331671041
H -1.2879646097 1.931504326 -0.7891116174
