11
0
N 1.6527326182 -0.7326690923 0.7565056362
C 2.4157527567 -1.5420581913 0.2926361582
C -0.0772210112 1.652166624 -0.9749749959
C -0.8808583789 0.9596865503 -0.4167998114
C -1.8467313576 0.1130031296 0.2709750355
O 3.1632542068 -2.368837904 -0.035605231
H 1.1684345187 -0.0023376361 0.2507777119
H 0.6170117269 2.2816181856 -1.4806511959
H -1.3332276056 -0.6004498345 0.9176115342
H -2.5127591176 0.7181867346 0.8865469951
H -2.4483943563 -0.4443175658 -0.4474668367
