12
0
C -1.8006386144 0.4606575159 0.1514812753
C -0.4527185762 0.0059829946 -0.3263617947
C -0.3286324599 -0.7031251837 -1.4287097411
O -0.212404172 -1.2897918343 -2.4259873526
C 1.672120447 -0.3312388211 0.5490230917
O 2.7821287649 0.0600519732 1.181944781
N 0.6851325415 0.4367896319 0.3967072467
H -1.814142204 1.5500931626 0.2273129569
H -2.5914188177 0.1533495003 -0.5331854047
H -2.0223225699 0.0478639377 1.1382864217
H 1.7434641192 -1.364822969 0.2056955436
H 2.6535915417 0.9814550919 1.4415039761
