12
0
C -1.7739927976 -0.0038492932 0.4120957223
C -0.4829808497 -0.1145729445 -0.3765636436
C -0.6175379329 -0.7729098992 -1.4879352073
C 0.7524894028 0.5169683904 0.149357146
C 1.7928799016 -0.2700211749 0.8138842096
O 1.9702690564 0.2312690453 -0.4993325581
H -2.6007206833 -0.4935306447 -0.1032306108
H -1.6516447385 -0.4730325374 1.3896692457
H -2.0325626252 1.0477382659 0.5485051432
H 0.6268269669 1.5581047529 0.4438503186
H 1.6673915622 -1.3462050378 0.8850936968
H 2.4097907374 0.1961120772 1.5763595375
