14
0
C 1.7710995364 0.4230343815 0.1824904219
C 0.268035182 0.4215883869 0.1235276436
C -0.3087153962 -0.924350594 -0.2266075252
C -1.787721361 -1.1438011088 -0.3965403055
O -2.6703487565 -0.3407303724 -0.2825857457
C -0.4418543829 1.5151879949 0.3695555265
H 2.1359773725 -0.3049725954 0.9132961115
H 2.1550658148 1.4044285539 0.4587498351
H 2.2017352003 0.1456745339 -0.7843404347
H -1.5205156327 1.524391709 0.3264321515
H 0.0110801336 -1.6663449469 0.5192520621
H 0.1482845715 -1.2921361803 -1.1564397727
H -2.0307051277 -2.1973666675 -0.6582720063
H 0.0641168459 2.4406249053 0.6215620377
