14
0
C -1.9047938384 -0.5190960498 -0.1886281945
C -0.5615347094 0.1345375452 -0.0328798929
C 0.547921939 -0.4488833236 -0.8123057297
C 1.7722282921 -0.6012462663 -0.3699516056
N 2.9321242725 -0.6077296689 0.0089550679
O 0.7198157712 1.9186444361 0.9601982151
C -0.4081643616 1.203367087 0.7512895082
H -2.6676882721 0.0065823428 0.3865000253
H -2.2207816687 -0.5234369078 -1.23624404
H -1.8817334902 -1.5595453382 0.1463014486
H 0.3461638063 -0.823624113 -1.8108882614
H 3.2332597316 -1.4420144426 0.5056428677
H -1.2406252236 1.6093816551 1.3137042577
H 1.4276397513 1.595336044 0.3928583337
