15
0
C 2.852180236 -0.4376968254 0.2587141434
N 1.4489789012 -0.2098720572 0.0219564212
C 1.0837995125 0.9585815572 -0.2931916324
C -0.3001011272 1.3196611266 -0.5802930565
C -1.2635401394 0.4167291038 -0.6100394898
C -2.9713042542 -0.9346989025 0.3302181662
N -2.1199158246 -0.416741283 -0.7226177795
H 3.4647010436 0.4705406039 0.1652823242
H 3.2229418037 -1.1834746112 -0.4486975355
H 2.9900675681 -0.8519829327 1.2602900481
H 1.8066366273 1.7831813309 -0.372881406
H -0.5573482282 2.3505598177 -0.7824233256
H -4.0112484726 -0.810711992 0.0299192175
H -2.8024227978 -0.4378219712 1.287900662
H -2.7758198487 -2.0013999652 0.4347642427
