19
0
C 1.0105074912 1.2020102131 -2.213100947
C 1.6922520892 -1.3802593495 0.7804265897
C 0.5067312728 -1.0859952951 1.292020409
C -0.0544753885 0.2949641208 1.4216924714
C -1.4102939931 0.494376018 0.7515747678
C -1.8244895202 -0.2604274669 -0.4744105941
C -2.4221113609 -0.6019414732 0.6133541718
H 2.0035913438 1.6463391087 -2.2632374835
H 0.3558823985 1.839235305 -1.61997109
H 0.6073482784 1.1041589919 -3.220302075
H 2.0493251086 -2.4016598076 0.7250366845
H 2.3545109998 -0.6068637775 0.4043233744
H -0.1218556161 -1.8969577988 1.6533315282
H 0.6581831007 1.0179152876 1.0126915123
H -0.1622843216 0.5353096219 2.4865958904
H -1.7795644281 1.5147653762 0.8735365074
H -1.6769415426 -0.3939712871 -1.5316728092
H 1.0727467157 0.2199571618 -1.7456883484
H -3.1356826277 -1.2299449495 1.1178294404
