16
0
C 1.3546488752 -0.6630968886 0.7030963057
C 0.8661029322 0.4739350653 -0.1894502527
C -0.1908849643 -0.0054230015 -1.2575927111
C -1.5097542261 -0.5351919609 -0.7112802809
C 0.1968028974 1.6210080095 0.4270347581
C -0.4198436681 1.4248777975 1.6596561952
N -0.9580408477 1.3897572612 2.6894980873
H 0.5412278514 -1.0992950787 1.2843356601
H 1.8105473094 -1.4524594973 0.101760037
H 2.1065877445 -0.3047947692 1.4076562863
H 1.6865204127 0.858039387 -0.8032745774
H 0.3261005084 -0.7945938498 -1.8085900696
H -2.0942772237 -0.9672800388 -1.5245866847
H -1.3601708843 -1.3165702487 0.035062061
H -2.1133059793 0.2517412407 -0.2563745563
H -0.3726877378 0.8120325721 -1.9558222581
