13
0
O 1.42075781 2.7784043309 -1.2081941183
C 0.6547311036 1.9000419451 -1.1997818485
N 0.5569305761 -0.4594018271 1.1510164433
C 0.550307651 -1.0738400434 -0.1856497399
C -0.5951883083 -0.1190872543 -0.5851748369
C -0.7910161551 0.0880965509 0.9321581773
N -0.1837222891 1.0499266389 -1.304756316
H 0.6642889172 -1.0884384401 1.933139944
H 0.2210270209 -2.1190905813 -0.2060793685
H 1.4831894868 -0.9777949268 -0.7438376429
H -1.4290590556 -0.5659352626 -1.1197193687
H -0.9329618422 1.1165712414 1.2686949608
H -1.6057999152 -0.5361333716 1.3164627143
