14
0
C -1.515042553 -0.113735552 0.3871336768
C -0.071358211 0.0364325632 -0.0672249363
C 0.1054970191 1.0541223954 -1.1805437995
C 0.5679673912 -1.2944336576 -0.3599175028
C 1.4199250872 -0.9376124489 0.8020701657
O 0.8056581875 0.3250476998 1.0633700457
H -1.6104843209 -0.8805967812 1.1568127958
H -1.849512684 0.8363076462 0.8075372714
H -2.1514692093 -0.3830613365 -0.4554414525
H -0.1934328473 2.0362426886 -0.8098780463
H -0.5118998306 0.7867293921 -2.0379295611
H 1.1463629565 1.1100289614 -1.5008755561
H 2.4820222983 -0.8654598106 0.5273080142
H 1.3431917163 -1.6536017599 1.631444885
