13
0
O 0.4510578689 0.6951037657 -1.6034775346
C 1.0874480364 0.5264836346 -0.4146860692
C 0.6985030646 -0.6959222451 0.3729775747
C -0.7684021772 -0.8274687913 0.6819692503
C -1.6704094231 0.1413740002 0.6210954508
N 1.9821901914 1.3155024322 -0.0151655566
H 1.0259299134 -1.5775175623 -0.1896307366
H 1.277093393 -0.6872302738 1.2975818448
H -0.2897337043 0.0841722798 -1.6687536796
H -1.0829721811 -1.8158233406 1.0051633353
H -2.7035059306 -0.0436297047 0.8872878678
H -1.4144801053 1.153645251 0.325841359
H 2.126643054 2.0622755542 -0.6921331061
