16
0
C 1.0105026486 -0.8858790569 -0.678165685
C 0.6182346089 0.1291088242 2.6869678277
N 0.4222512902 1.0794291887 1.8039666161
C -0.0381473755 1.0574939558 0.4379544258
O -0.1330063561 2.1140049164 -0.1198182591
C -0.3182376493 -0.278981705 -0.2081797375
C -1.2992399665 -0.1091390582 -1.3611399154
H 1.4852445585 -0.2357854791 -1.4155761212
H 0.8286817124 -1.8538295716 -1.1466580432
H 1.710228181 -1.0359596235 0.1450341327
H 0.3422766217 -0.8254763312 2.2051606873
H 0.6215565018 2.0376819472 2.0766979194
H -0.757032386 -0.9419839154 0.5408688067
H -0.8941499124 0.5600987163 -2.1202372324
H -2.2460417956 0.3098428665 -1.0188613344
H -1.499160682 -1.0777676743 -1.8216070876
