14
0
C -1.3832822448 -0.8130334168 -0.4434976921
N -1.5447648073 0.663336314 -0.272273274
C -0.2245695238 -0.0106452995 -0.0878046477
C 0.816688755 0.2783827763 0.9556090515
C 1.8106153486 -0.4223774152 0.0404352771
C 0.9598215758 0.5198866338 -0.9215112705
O 1.0604320436 1.5377238419 0.3345423012
H -1.9223475061 -1.3901977917 0.2982550102
H -1.4937965638 -1.1406981921 -1.4716122836
H -2.0538571428 1.0155400668 0.5236816811
H 0.7044754923 0.2440943196 2.0505369672
H 1.719662713 -1.5029827721 -0.1073157012
H 2.8431401952 -0.1043796512 0.1687101939
H -1.557284335 1.2434445862 -1.1047006132
