14
0
O -0.3519068205 -1.2714071484 1.3388144198
C -0.2405960767 -0.9458387453 -0.0096760043
C -0.9144649252 0.3361971305 -0.5699917032
C 0.374249878 0.6655409721 -1.3606436087
C 1.0950325706 -0.3389182899 -0.4612830725
O 2.2254353792 -0.4924130404 -0.1229287173
H -1.0543554246 -1.9100163694 1.4638647038
H -0.4577505756 -1.8010137827 -0.6637262274
H -1.8303706522 0.1982914538 -1.1414798618
H -1.0867394849 1.050945284 0.2339851424
H 0.7549537609 1.6846458422 -1.3211891638
H 0.6715048957 1.6859008277 2.5858747972
H 0.3498943147 0.3320594959 -2.3996648921
H 0.5099211609 0.9678433698 2.463219188
