14
0
O 0.3753952679 -2.7964594914 0.101864211
C 0.2463880398 -1.4250673341 0.1522034624
C -1.4011410901 2.0512255941 -0.1393178897
C -0.7020872853 2.0428011139 -1.2619105496
C 1.1938222768 -0.7117911007 0.7459717398
O 2.2744477471 -1.2470514021 1.3632807337
H -0.4901080448 -3.2050646207 0.0883363969
H -0.5994005286 -0.9689152369 -0.3456899669
H -2.1685309265 2.7937598242 0.0471655223
H -1.2350804936 1.318906567 0.6435432501
H -0.8703893697 2.7787097569 -2.0398372359
H 0.0681224489 1.3029824503 -1.4513489439
H 1.1725607075 0.3688678757 0.7642680772
H 2.2053952503 -2.2057339962 1.3005461925
