11
0
N 2.7598114259 -0.7074302235 1.4131595578
C 1.9819679761 -0.7890168407 0.5736894753
C 0.975752188 -0.8570736591 -0.5000792021
C 0.0218197346 0.2868479805 -0.4875215065
C -2.0341798105 0.9354250891 0.4425664937
O -1.0841257686 0.1101944148 0.1624168235
H 0.4308369676 -1.7979398504 -0.3985242378
H 1.5113006484 -0.8989561175 -1.4515455004
H 0.2824521522 1.2886222828 -0.8052206731
H -2.8732514932 0.5088282074 0.9631642029
H -1.9564580205 1.9674077168 0.1279955664
