14
0
O -2.11497076 0.9474803942 0.2284382233
C -0.9111703949 0.8075537534 -0.5103550487
C -0.0159837363 -0.139317395 0.2516344421
C 0.5589379163 -1.5139821761 -0.3669813455
C 1.4362917585 -0.3949223784 -0.5855041285
C 1.4885728351 0.2273183789 0.7098354882
H -2.6975823409 1.5481458825 -0.2379877072
H -0.4053158469 1.7712589402 -0.6289761729
H -1.1032361197 0.4047909425 -1.5098892909
H -0.484043178 -0.4610284584 1.1776204833
H 1.6798180266 -0.330103376 1.6333333111
H 0.6776529524 -2.2110852557 0.4695489062
H 0.0567256799 -1.9489680559 -1.2265082973
H 1.7754722081 1.2736608042 0.7670951367
