13
0
C 0.6568096447 0.6215466039 1.0014604995
O 0.7369956354 -0.8033350369 0.9909900343
C -0.0836646073 -1.2464944179 -0.1102008725
C -1.5053158727 -0.9887780249 0.422637153
O -1.5846720177 0.3139236661 0.3649105431
C -0.3246142974 0.8973236003 -0.1277018101
C 0.0863299409 -0.1477874639 -1.1490849686
H 1.6404353166 1.0579207526 0.8073616763
H 0.2831987275 0.9707410592 1.9658102727
H 0.1671587276 -2.2723463136 -0.3544634248
H -0.6039972682 -0.2141861891 -1.9887332928
H -0.4981650213 1.92866893 -0.4162412036
H 1.1128100917 -0.044998166 -1.4968896065
