11
0
O -0.2216216641 1.0695371953 -1.5793233218
C -0.1836052071 0.6034667921 -0.3573520307
C -1.1578134165 -0.3073851259 0.192718858
C -0.0372207654 -1.3563976164 0.4239693404
C 1.116641371 -0.7612641867 0.8406527706
C 1.1510053002 0.5958492958 0.3326873831
O 2.0060441258 1.4376742266 0.2128511619
H -1.5632366743 -0.054364642 1.1672844777
H -1.9502751148 -0.5985094011 -0.4956702656
H -1.1124951656 1.0273131059 -1.9449577176
H 1.9499202106 -1.2757726438 1.3024363438
