15
0
O 1.9911044684 -0.7752049468 -0.4500116028
C 0.9423100136 -0.3019758089 0.3484089343
C 0.6863502174 1.2133993301 0.277011228
C -0.7366140282 1.5185169661 0.5224869738
C -1.3893299775 0.1814407918 0.4937700639
C -0.429459737 -0.8843109455 -0.0344847966
O -0.5113710995 -1.0499732799 -1.4460758731
H 1.6037129266 -0.9903354257 -1.306849729
H 1.1720780579 -0.5777847061 1.3827934488
H 1.3980763071 1.8569146646 0.7948314942
H 0.7438959467 1.5412115478 -0.780935483
H -0.898193173 -0.2689730028 -1.846188397
H -1.5194998234 0.0488988269 1.5851328677
H -2.4041536485 0.1570111964 0.0906340276
H -0.5904444507 -1.8749832081 0.3915208431
