14
0
O 0.5768151162 1.4733346401 0.577666893
C 1.1005342739 0.7055873365 -0.4654661118
C 1.5190277708 -0.6558203054 0.0956455747
N 0.0835518988 -1.0262729089 -0.1546912799
C -0.9774665566 -0.6598959841 0.5650830814
C -1.520940205 0.280746412 -0.4851557017
C -0.1395942272 0.0612870328 -1.1473274558
H 2.160077684 -1.2553290297 -0.5447966737
H 1.8287380527 -0.7033670538 1.141670118
H 1.3011386147 1.7225666625 1.1534114215
H -1.0928055716 -0.7592803982 1.6347462649
H -1.7525959434 1.2860690656 -0.141490486
H -2.3385625723 -0.1039591082 -1.0960791467
H -0.0666763351 -0.1920433612 -2.2016104979
