12
0
N 2.3539079613 0.509139726 -0.025136586
C 1.1528390696 0.0309688371 -0.0129194886
C 0.4925295823 -1.2102325375 -0.0521821464
N -0.8890011427 -0.9557441002 0.0243261412
C -1.1090055846 0.3303435704 0.0992376032
O -2.3256759186 0.8731083251 0.2169119108
N 0.0655526145 0.9610813505 0.0734415875
H 3.0305863125 -0.2406130222 -0.0901413669
H 0.2248028412 1.9448601612 0.2029646956
H 0.8762911678 -2.2120015948 -0.0450010044
H -1.6240213489 -1.6384496154 -0.0125971529
H -2.4144015545 1.6322859 -0.3663951931
