19
0
C 1.8302920235 -1.0333847311 -0.6581206105
C 1.096005743 0.2255999007 -0.5389695291
O -0.2767309521 2.5804081525 -0.2649918876
C -0.5697209224 1.5763826402 0.6638038165
C -0.2192273977 0.1692273973 0.1299723737
C -0.4429951095 -0.8739850403 1.2251531982
C -1.1199787332 -0.1395882319 -1.1018592449
H 2.5309725507 -1.0481676301 -1.4926680684
H 2.4600763606 -0.9610424724 0.2490567596
H 1.2762950794 -1.9767258707 -0.5865990798
H 0.5549681481 2.2935387102 -0.678286726
H -1.6384571733 1.6314494871 0.8935521533
H -0.0225019237 1.7325770685 1.6057735823
H 0.2703171026 -0.7440314681 2.0422986348
H -0.352736183 -1.8952593028 0.8538854493
H -1.4466220574 -0.766566803 1.6439467795
H -0.9297594518 -1.136715388 -1.5014020914
H -0.9912510505 0.5959315604 -1.8945716598
H -2.156700053 -0.0942499784 -0.7631328493
