13
0
C -0.6033245779 -1.0976459227 0.1507614786
C -0.1249128834 0.118610154 -0.6902793881
C 0.0510675726 1.4614703035 -0.0106160258
O 0.7024671877 1.3969567991 1.2395613911
C 0.7456019012 -1.5990835303 -0.2675063852
N 1.1456468317 -0.6059941134 -0.9614969033
H -1.46481568 -1.6419455296 -0.2388010714
H -0.7395339141 -0.9328010125 1.2207450059
H 0.080542013 1.0961522919 1.9027768707
H -0.6918342461 0.2655030592 -1.6142502728
H -0.9276549126 1.9506022202 0.0767908063
H 0.6787565502 2.0864733646 -0.6489708163
H 1.2910231578 -2.5245080839 -0.0925456898
