16
0
C 2.636164077 -1.0939687405 1.0151974934
C 1.3408293714 -0.783911542 0.3565896759
N 0.8189489095 0.4015010746 0.3600638668
C -0.1795101773 0.9574102723 -0.4522841532
O -1.0645332015 1.7998624527 0.2876533829
C -1.5667843776 0.563232393 -0.224920465
C -2.6004110735 0.6498411103 -1.3064903025
H 3.4223513929 -1.2754525614 0.2748571313
H 2.5554605786 -1.9962333297 1.6244246197
H 2.9623225505 -0.276716784 1.6610030734
H 0.8335360322 -1.5293861591 -0.2439445579
H 1.2944885509 1.1057707431 0.9164797683
H -1.7741135915 -0.1666774313 0.5614589658
H -2.2976113994 1.3846871254 -2.0514226651
H -3.5693746988 0.9411678881 -0.8948494509
H -2.7154089431 -0.3195205112 -1.7976253828
