15
0
C 0.7397363994 1.3225844064 -0.0870439977
C 1.1857249182 -0.1355807488 -0.1323986573
C 0.082148696 -1.0408034983 0.2532191699
O -0.8638132731 -0.6261665094 1.2362144658
C -1.2900777997 -1.5352766008 2.0485707172
C -0.4186850934 0.9947467849 -1.0643576536
C 0.0327063434 -0.462024543 -1.1059808876
H 0.4642598291 1.7036423377 0.8967384486
H 1.4736798769 1.9915870776 -0.5327143678
H 2.2105779107 -0.4824735982 -0.132817468
H 0.2996882279 -2.0969448465 0.3505594785
H -1.9944383644 -0.9659529824 2.6972016259
H -1.4336601739 1.1656038543 -0.7042721058
H -0.2970630358 1.4912730855 -2.0253578815
H 0.0242335387 -1.0996582189 -1.9800288866
