18
0
C -1.3712537118 -1.3908447159 -0.9224330238
C -0.9831980131 0.0511071124 -0.620103721
C -2.0125648786 0.7272467431 0.2768637211
N 0.3096305211 0.0657124288 0.0440459895
C 2.7067933828 0.1161013769 1.2267781557
C 1.2523647122 0.675408477 -0.5163710002
O 2.4879713559 0.7679373844 -0.0176248161
H -1.4181070749 -1.9678283224 0.0035067632
H -2.3473767771 -1.4348676804 -1.4100815514
H -0.6371371812 -1.8623129878 -1.5778293186
H -0.9352239021 0.6044937479 -1.5719679539
H -1.7373313361 1.7649856488 0.4725843025
H -2.9996952443 0.7149587017 -0.1900113596
H -2.0739016212 0.2068393525 1.2348888039
H 2.0446123381 0.5194668683 1.994327909
H 2.5202213978 -0.955271744 1.1365220328
H 3.7475000416 0.3031185203 1.4808211292
H 1.1877209909 1.2031000883 -1.4725190622
