14
0
O -0.024225719 1.8143494816 -0.0466770351
C -0.5396467169 0.7474487198 0.6168947258
C -0.5273221774 -0.4821118987 -0.243971967
C 0.8656246509 -0.958992681 -0.5455202896
C 1.3693261879 -1.0933360166 -1.7608636332
C -0.9870749238 0.7914814791 1.868130931
H -0.0233922561 2.5806932318 0.5319276702
H -1.3885258147 -0.0952690267 2.3355639719
H -1.0518865268 -0.2634797822 -1.1780151486
H -1.0815278954 -1.2672620303 0.2746629546
H 1.476829903 -1.2046578996 0.3197318004
H 0.7896187938 -0.8458900569 -2.6439660675
H 2.3796243362 -1.4507142635 -1.9181947979
H -0.9688298418 1.7055767433 2.4506428849
