12
0
O -1.3456144865 -1.3128806774 1.2463813691
C -0.7597198965 -0.3651567863 1.0407740737
C -0.0707115245 0.74635918 0.646587513
C 1.4785737456 0.5373414414 0.6884827726
C 0.8337285321 0.5147571869 -0.609753493
C 0.6737032655 -0.7218583531 -1.2783954467
N 0.530031463 -1.6991770982 -1.878776079
H -2.7877480237 0.0707188108 -1.418788481
H -0.5476846872 1.6979152982 0.8477153568
H 1.8421738221 -0.3618982158 1.186699176
H 1.9583885226 1.4531668099 1.0184776025
H -2.1792657324 -0.2383335963 -1.720897364
