14
0
C -1.5218885915 -0.3579723736 1.1336965721
C -0.3652990109 0.054954693 -1.8153200199
O -0.6670463017 0.7751131598 1.0808050903
C 0.5390349806 0.6557912285 0.5004300211
C 1.2033042003 -0.5407321207 0.0689525965
C 0.7970192571 0.3811006206 -1.1301942065
H -2.4050847901 -0.0324557071 1.6787958615
H -1.0446830758 -1.1797391454 1.6762768347
H -1.78526518 -0.6736083003 0.1220012904
H -0.3682640277 0.5938663699 -2.7779239008
H 1.1529369485 1.5116929395 0.7518021757
H 2.2724026061 -0.6148513178 0.2188956441
H 0.6639586033 -1.4765239747 0.0800017421
H 1.6035403818 1.0191819284 -1.4916397012
