14
0
C -0.3622152189 -1.5884733147 0.1360364436
C -0.4928850242 -0.1648398703 -0.3676153305
C -1.2138920822 0.8529919282 0.5324180614
O -0.0150638146 1.6578521434 0.6088097294
C 0.6843481763 0.7591754884 -0.1605402573
C 1.9578088867 0.8052999751 -0.5056637308
H 0.019680676 -1.605359025 1.1584933828
H 0.3263929558 -2.1595324627 -0.4886512979
H -1.3286151675 -2.0972043308 0.1199616154
H -0.8570179742 -0.1474826904 -1.39631636
H -2.037947588 1.4091569839 0.0832327905
H -1.5029327859 0.482906954 1.5188294406
H 2.5959098885 1.6175020235 -0.1852449152
H 2.3737800724 0.0215251974 -1.1223845721
