14
0
C -1.0980958672 0.2051553049 -0.804262634
C 0.1715109906 0.3982435261 0.0301060107
O 0.3635847657 1.7756569963 0.314817683
C 0.1284689241 -0.4077053183 1.3311889641
C 1.3811766124 -0.005637292 -0.7853793344
O 1.2599155872 -1.2787513747 -1.0660644468
H -1.961569501 0.5830042699 -0.2508762139
H -1.2687041288 -0.8475654972 -1.0301104889
H -1.0255941523 0.761932309 -1.7398115463
H -0.38805967 2.0816110245 0.8273556555
H -0.6949126465 -0.0527696771 1.9561340163
H -0.0221872571 -1.4693315051 1.1349871277
H 1.0578529492 -0.2779500552 1.8878335943
H 2.0249753938 -1.543490711 -1.5860823871
