14
0
C 1.4678814694 -0.0539297028 -1.2802107329
C -0.1614228509 0.772193713 1.7807710342
C -0.9059604158 1.1720347388 0.7582822813
O -1.2009338741 0.5074990712 -0.380315316
C -0.7872727977 -0.8367480826 -0.4975790095
C 0.6294155094 -1.0212008821 -0.9531519422
H 1.1801068397 0.9888527827 -1.2199425768
H 2.4739906323 -0.2756559602 -1.6125170993
H -0.046986356 1.4341279889 2.6266794203
H -1.3862539986 2.1439621962 0.7479800252
H 0.3605179212 -0.1741807126 1.8057441517
H -1.461511958 -1.2844963924 -1.232437032
H -0.9505562831 -1.3618742469 0.4515908506
H 0.9440621619 -2.0600185113 -1.0194250546
