15
0
O -0.3440362402 2.1902060273 0.2313442454
C 0.2410608095 1.5562027185 1.0701752976
C -1.7020814477 -0.4353344393 -1.1795233912
C -1.0866367071 -0.9228279244 -0.1147619408
C 0.3712145306 -0.8763923159 0.1489122434
C 1.3289078192 -0.0437090616 -0.6178170847
C 1.0446002134 0.3420039411 0.8051702493
H -1.1646032797 0.0625590258 -1.977454228
H -2.7771691308 -0.5095287918 -1.2845452024
H 0.1946357139 1.8628320175 2.1347819738
H -1.6752891789 -1.410661197 0.6578733918
H 0.768523866 -1.8084479575 0.5368462302
H 0.9278192593 0.6358850676 -1.3585561891
H 2.3039134366 -0.4539283275 -0.8423903184
H 1.7768093356 0.1096572173 1.5687327232
