15
0
C -1.8112504634 1.3923662286 -0.6617380584
C -0.6688360076 0.4408304676 -0.4864508136
O -0.5973477523 -0.2264517008 0.7814534801
C -0.8530724702 -1.0014133967 -0.3949124029
O 2.4139180163 -0.7520857791 -0.3536048597
C 2.7139460503 -0.6957705978 0.8103836253
O 1.8808825012 -0.4948503158 1.8119425276
H -2.7326271864 0.9692155356 -0.2602391604
H -1.9577450727 1.6084229481 -1.7218078786
H -1.6101518755 2.3339853625 -0.1484510743
H 0.3039172453 0.7744169877 -0.8385966041
H 0.9592253314 -0.3972532185 1.4564575469
H -0.0391840897 -1.6539919375 -0.6917561109
H -1.8547116407 -1.4168994426 -0.4392369521
H 3.744670414 -0.8085891415 1.1753577351
