11
0
O 1.7587546944 0.8131531812 -0.7237528157
C 0.6083123291 0.2775671495 -0.2347699696
C -0.1757030189 -1.0251388589 -0.261290632
N -1.5092339905 -0.4178926515 -0.4775720434
C -0.7926458419 0.697026716 0.1839885118
C 0.0808437156 -0.2319168725 1.00582509
H 2.403994724 0.8795461176 -0.0175590096
H 0.1309992188 -2.0337820325 -0.5009038322
H -1.6523868588 -0.2138890299 -1.46583005
H -1.1925466286 1.6638295235 0.456354224
H 0.3338526568 -0.4077422425 2.0360975264
