9
0
N -0.6245874829 0.7075002132 -0.0197922399
C 0.7421276321 0.9640438452 0.0180423899
C 1.460676616 -0.210923955 0.0410000684
N 0.414309902 -1.1425424219 0.0132262837
C -0.8034854364 -0.6042774208 -0.0218148698
H -1.3705633644 1.3806009625 -0.0426069396
H 1.087701031 1.9847692288 0.0253945528
H 0.5704338003 -2.1353417568 0.0196842059
H -1.7519436978 -1.1144906952 -0.0463694513
