15
0
C 1.8183474118 0.6310751002 -0.5219793767
C 1.2116362069 -0.5739969023 0.1392962236
O 1.7402592546 -1.1648571869 1.0474865368
C -1.5357197993 0.7050429673 0.8273948825
C -1.3818022444 -0.4970231848 -0.0562933441
O -0.8072657053 -0.3212855388 -1.3424901366
C -0.0921079398 -1.102274195 -0.4016886792
H 1.0896991357 1.4322761497 -0.6423946567
H 2.6816752545 0.9672241259 0.0474914604
H 2.1288473634 0.3498614249 -1.5320844005
H -1.7324229307 0.3855453653 1.8523345056
H -2.3791765885 1.3111559489 0.4927413899
H -0.6442982951 1.3305546774 0.8307888824
H -2.2369918383 -1.1705921603 -0.0590674424
H -0.0647782853 -2.1719515916 -0.5985878449
