13
0
C 2.5209929913 0.5084418926 -0.0802770367
O 1.1765490575 0.7253049618 0.3763102203
C 0.2265580629 0.2024370841 -0.3225278796
C -1.0603651575 0.5520926226 0.3691078935
O -2.2075456123 0.1691237306 -0.3727077453
C -2.364374981 -1.1410746291 -0.6116694728
O -3.2778876509 -1.5680691427 -1.2425371901
H 2.4922818405 -0.0680997045 -1.003005235
H 3.0526546084 -0.0266858535 0.7048146962
H 2.9754396533 1.4852962575 -0.2362189316
H -1.5781148944 -1.7703277442 -0.160787307
H -1.1436971593 1.632766348 0.5071171956
H -1.0646677584 0.0916821768 1.3662067924
