14
0
C -1.3490375394 -1.0212731479 -0.1116551052
C -0.3007722703 -0.0854016348 -0.6763564116
C -0.0088331096 1.1346179427 0.2248061612
C 1.3629357553 0.8051881783 0.7505104112
C 1.8058014454 -0.271998985 0.1203325224
O 0.9506283699 -0.8086438167 -0.7851983408
H -1.0776280146 -1.3234262898 0.9023642063
H -2.3203480745 -0.5232043304 -0.0768228945
H -1.438573354 -1.9161785069 -0.7281660877
H -0.5688036686 0.2138971396 -1.6912059188
H -0.7581531753 1.2290552158 1.0155685279
H -0.014158606 2.0726549423 -0.3372717132
H 1.9052489035 1.3676083547 1.4936026614
H 2.751852338 -0.7869920617 0.2111049816
