12
0
C 1.6581627754 -0.2458768198 0.2361859797
C 0.2343071169 0.1030928335 -0.0346441683
N -0.7777643553 -0.9377246092 -0.0207404009
N -0.4286177332 -1.9496785257 0.5826154102
C -1.4797022931 1.6074564254 -0.5498047365
O -2.2537129717 1.9599218459 0.2924701558
N -0.1482259451 1.270272697 -0.30301443
H 2.0079517488 -0.9917681806 -0.4795231427
H 1.7535152897 -0.6871993927 1.2283780876
H 2.2646774019 0.6525664033 0.1642658062
H -1.2115555244 -2.6134929199 0.5331011739
H -1.7161135099 1.6233072429 -1.629081735
