14
0
O 2.0597715753 0.044072542 -0.2552770308
C 0.7794066524 0.000253292 0.332575913
C 0.026238047 1.3101089973 0.0738067054
N -0.9077659345 0.6662169009 -0.899657303
C -1.6273212144 -0.3666536112 -0.1290666549
C -0.2674610794 -0.6424217422 -0.5732503407
O 0.0143419038 -1.6109525385 -1.4892759689
H 2.5296784043 -0.7596841897 -0.0255872752
H 0.8293599938 -0.3757790715 1.3591562495
H -0.4709653753 1.7713050673 0.9294683291
H 0.6557576496 2.0402583129 -0.4316895567
H 0.7541475599 -1.299609696 -2.0208932153
H -2.4232542871 -0.8332654012 -0.694745182
H -1.8435248953 -0.1860558621 0.9207513303
