10
0
O 1.360597984 -1.5424555726 0.7077785999
C 0.9299451784 -0.7699329457 -0.2610801968
C -0.5953882279 1.2198523285 -0.4445908758
C -0.352361323 -0.1471709178 0.181419961
H 2.1667557705 -1.9765034159 0.4095219425
H -0.5031725719 1.1661296228 -1.5299244325
H -1.5904531877 1.5925925601 -0.1976298753
H 0.1342160459 1.9480184963 -0.0864714348
H -1.1034424027 -0.8597688101 -0.1935833764
H -0.4538322658 -0.1338393455 1.2738086883
