13
0
O 1.7056455256 1.3994552476 -1.7551901399
C 1.6553573134 1.829889551 -0.6804483152
C 0.0845778062 -1.1036712772 0.1039312337
C -1.2996048619 -1.4733681402 0.5428200516
C -1.079671843 -0.2419985532 -0.2825092613
N 1.5306793124 2.1763144302 0.4714519998
H 0.5513651875 -1.6996668649 -0.6690904367
H 0.7686493305 -0.7227862384 0.8511723791
H -1.7722862963 -2.3247685428 0.0710411513
H -1.5512697178 -1.3453970323 1.5874246891
H -1.3998229993 -0.2565018976 -1.3159917256
H -1.1785970023 0.7192090676 0.20512911
H 1.9382632451 3.0041202503 0.8660492642
