17
0
C 2.4855893147 0.1384852526 0.15940747
C 1.0138626048 0.3993690861 0.331794412
C 0.078504235 -0.52293128 0.0703590969
C -1.4150761308 -0.3590522408 0.043437196
C -1.9863961186 -0.6832113485 -1.3369772801
C 0.6898022533 1.7986825779 0.654281852
O -0.0015141969 1.9142671337 1.7528821562
H 3.0395984499 0.3679869705 1.0729449923
H 2.8893118661 0.77733043 -0.6280951674
H 2.6668325206 -0.9048079936 -0.0990282988
H 0.4300964104 -1.4946914763 -0.2749631091
H -1.7103106612 0.6522470125 0.32785606
H -1.8632033016 -1.0353478637 0.7796058617
H -3.0744326981 -0.5997268092 -1.3394961593
H -1.5914554836 0.001608338 -2.0893842109
H -1.7275673941 -1.7001977331 -1.6405013909
H -0.17604967 1.0492359437 2.1766365196
