14
0
C -1.6348718598 0.6514182049 -0.1096567101
C -0.3956882152 0.3406904999 0.2612697931
C 0.7999357924 1.1740962978 0.286949192
C 1.8065666579 0.4213325265 0.7334591356
O 1.4843567757 -0.85454495 1.0326069467
C 0.0823753159 -1.0088259593 0.7526495938
H -0.4129562447 -1.3557283259 -2.9496405062
H -1.882905512 1.6475052405 -0.4529717662
H -2.4364915844 -0.0763649291 -0.0776888503
H 0.8593851756 2.211159429 -0.0007478596
H 2.8443885484 0.6757300862 0.8960314105
H -0.6102424514 -0.8345318632 -2.4529874392
H -0.415165028 -1.3256421157 1.6709649736
H -0.0303343704 -1.7906741417 -0.0015409137
