19
0
C 2.3495721596 0.1022725874 1.495249778
C 1.4057603192 0.8525120107 0.5747246601
C 0.0624378266 0.1911816345 0.3887919393
O -0.2382464495 -0.8089240855 1.0052160569
C -0.8767378389 0.8020216447 -0.6249196131
C -0.8082037886 0.0285261653 -1.9450200439
O -2.7749239443 -1.7705460208 0.1680746337
H 1.9189082084 -0.0045868824 2.490835486
H 2.5467227348 -0.9014084511 1.1176853151
H 3.3000135676 0.6296536819 1.5840850913
H 1.2092080001 1.8664296586 0.94245548
H 1.8390030435 0.9940177998 -0.422161769
H -0.6205345698 1.8516692174 -0.7860642406
H -1.9202738063 -1.5554194489 0.5739149815
H -1.8911480865 0.7469200234 -0.2259152128
H 0.2013768365 0.0354472181 -2.3627683561
H -1.1204918355 -1.0046827533 -1.7938512845
H -1.4774127316 0.4776545464 -2.6788235231
H -3.1050316453 -2.5327385462 0.6433646212
