13
0
C -1.0897027459 0.3393314811 1.1520780422
O -1.3350104131 -0.4289573818 -2.1688390293
C -0.4432508257 0.2031440873 -2.5473967035
O 0.4411253285 0.8331863351 -2.9435383209
C 1.3539313222 -0.9013159265 0.524370194
C 1.0876227272 0.3736995251 0.2635554412
O -0.0584469891 1.0451443796 0.4925641977
H -1.4205647556 -0.5183688871 0.5597051184
H -0.7550677035 -0.0054239215 2.1352717199
H -1.9139357303 1.0387409071 1.2704159983
H 2.3307930161 -1.2870464411 0.2715625893
H 0.646476485 -1.579423822 0.9802116627
H 1.8168652841 1.0283986647 -0.19977191
