17
0
C 1.3039745593 0.9079890069 -0.8949459038
C 1.8879537975 0.261945817 0.3204172207
C 1.5604638678 0.5557772068 1.5695774117
C -2.0938974694 -0.3556775193 0.3421248427
C -2.5145736437 0.0090521563 -0.857393022
H 2.0802190227 1.4042138604 -1.4831219048
H 0.5479286575 1.6484834613 -0.6296745403
H 0.8421712161 0.1612409688 -1.5464894288
H 2.6369460664 -0.5061043445 0.1415993099
H 0.4202937711 -2.6620789218 -1.4492188002
H 0.8184847401 1.3151283998 1.7959439911
H 2.0215400372 0.0525361933 2.4106203078
H -1.0382556195 -0.413710611 0.5852964446
H -2.7910410804 -0.610145031 1.1325168895
H -0.2028039674 -2.3654576019 -1.1670845034
H -1.820000333 0.2643304048 -1.6499015939
H -3.5700726224 0.0682235542 -1.0979817206
