12
0
C -0.9162297782 -1.2326616335 0.127276777
C -0.1609404426 0.070157192 0.011177927
O -1.0051841354 2.1736811133 1.4045526052
C 1.2748276405 -0.0548532018 -0.1364992332
C 2.4608289458 -0.1835405523 -0.245655347
C -0.7182187952 1.3274732515 0.4360388623
N -0.8391090497 1.2193515235 -0.7941590359
H -0.7534929103 -1.8381929256 -0.7657337933
H -0.5724072847 -1.806369256 0.9901765965
H -1.9844218855 -1.0433702254 0.2315594172
H -0.6642432607 1.8334614595 2.236735275
H 3.514039956 -0.2906757452 -0.3565510507
