16
0
C -1.2787392737 -0.0990032683 -0.7557316641
C -0.8248327423 -0.8168439884 0.5094590201
C -1.1238487632 -0.0216341324 1.7735960453
C 2.1675996251 1.0692318852 -0.4883257293
O 1.9062948812 1.8020114165 0.366201767
C 2.4600845448 0.2390882175 -1.4549793589
H -1.0463132455 -0.6758622126 -1.6537252471
H -0.8005702766 0.8803009357 -0.8483401961
H -2.3582235343 0.0710274131 -0.7449126545
H -1.3128321011 -1.7944829198 0.5655529843
H -0.619355368 0.9473500849 1.7540673339
H -0.7894319284 -0.5508143633 2.6677621991
H -2.1960605667 0.1639416011 1.8772305775
H 1.6576240556 -0.235328092 -1.9981076229
H 3.4943506036 0.0445067381 -1.6913333441
H 0.2493840897 -1.0195733155 0.4517178897
