12
0
C -1.6324000079 0.7454544825 -0.5456690542
C -0.889243408 0.440729632 0.7213100967
O -1.3038531251 0.6904811731 1.825754165
N 0.3626490045 -0.1696753401 0.5940247676
C 0.9376644601 -0.5058521642 -0.5804501468
N 2.1236556057 -1.0696106188 -0.4146670906
H -2.5754179309 1.2159168164 -0.2801662745
H -1.0397124608 1.400823021 -1.1830285944
H -1.8035292538 -0.1684711438 -1.1135125311
H 0.7967167447 -0.3356571608 1.501866299
H 2.5671495531 -1.2372666708 0.4834639145
H 2.6389868184 -1.3588430267 -1.2248175512
