14
0
C -1.9209692613 -0.1211249308 -0.3163842713
C -0.4331564042 -0.2010591711 -0.5506423599
N 0.2815077922 1.0108162105 -0.2016478571
O 0.1361201661 -1.1695858672 0.3064519325
C 1.4261936888 -0.7441416821 0.6942979101
C 1.4455863544 0.7556567749 0.4490676521
O 2.3088967359 1.5401010009 0.7553342023
H -2.1188729052 0.1571504668 0.718877043
H -2.3752764209 0.6151604031 -0.9821355139
H -2.3743214458 -1.0917679662 -0.5184767384
H 0.0985753592 1.9062954781 -0.6187773876
H 1.5918634501 -0.9754994843 1.7460666438
H 2.2126584853 -1.2197331683 0.0957710427
H -0.2285725945 -0.4729750643 -1.5986752981
