18
0
C -1.0087813368 -1.7738118775 0.4761511493
C -1.3024133733 -0.3634809945 0.0714792663
C -0.8094400218 0.2392969709 -1.0045532332
C -1.0985179731 1.6490741227 -1.4126996642
O 1.5879789145 1.0710283002 1.0524172646
C 2.4265934607 -0.058518198 0.980814963
H -1.9240701223 -2.3704744107 0.5028264127
H -0.3118074192 -2.2492347841 -0.2157143169
H -0.5750789852 -1.8138443408 1.4789127646
H 0.7154453063 0.8134863781 0.7371528372
H -1.9774829929 0.1965283563 0.7169491388
H -0.1388085623 -0.3240866934 -1.6520141227
H -1.5448623831 1.6822518705 -2.4096277668
H -0.1785902621 2.238015055 -1.4524633889
H -1.7835602486 2.1335821342 -0.7154859691
H 2.4543864441 -0.4922127381 -0.0260438219
H 3.43510344 0.2647122823 1.2389503961
H 2.1281581148 -0.8421374332 1.6878590909
