16
0
C 2.7020281131 0.6132317203 2.3506505373
C 1.7464241824 0.1398681139 1.3560060486
C 0.9682479243 -0.252977471 0.5332904849
C -0.0060131069 -0.7060930543 -0.4556069474
C -1.3526104225 0.0025672948 -0.2917869318
C -2.7918934289 0.0879851803 -2.3337097666
N -2.3363466189 -0.4858694207 -1.2576486371
H 2.9603494741 1.6580653761 2.1724315062
H 3.6204773335 0.0256130301 2.3150263647
H 2.2864971485 0.5326389866 3.3561901466
H -0.1456791534 -1.7875025944 -0.3628857672
H 0.3721088728 -0.5235054425 -1.4649160536
H -1.7335927848 -0.1506149599 0.7206742381
H -2.2969348968 1.0801339655 -2.3865233387
H -1.2375925038 1.074686976 -0.4515597392
H -2.6861741326 -1.4145007005 -1.0535101448
