12
0
C 1.1860125307 -0.6983847943 0.538857038
C 0.0186628736 0.1038322229 0.0290651916
C -1.3567373983 -0.2287763593 0.5423610184
C 0.1944884839 1.060424699 -0.8425251682
N 0.3731371368 2.0310743126 -1.5687122428
H 1.0608250407 -1.7589139596 0.3020887058
H 2.1284321547 -0.3614142019 0.1085808713
H 1.2605850248 -0.6127679645 1.6268310576
H 0.333045356 1.8239805283 -2.5644005958
H -1.617772177 -1.2647349656 0.3073594301
H -1.3940912956 -0.1208024764 1.6302227338
H -2.1187727304 0.4203239589 0.11246996
