13
0
O 0.8248568965 -2.2885985197 0.3763701377
C 0.2870943165 -1.2692494024 0.0385669769
C -1.2029619393 -1.1473921456 -0.1307719029
C -0.5033967755 1.820424785 0.8018307756
C 0.6019949452 1.23859182 0.2626637515
O 1.2335805199 2.3022191274 0.496464335
C 1.131196896 -0.0360852919 -0.2696768866
H -1.6638454402 -2.1286786416 -0.0479066665
H -1.4505708187 -0.6963153572 -1.0943901879
H -1.6016734484 -0.4937939825 0.6513045887
H -1.134475824 2.4294816086 0.1567909246
H 2.1520097311 -0.1880349673 0.0803965765
H 1.1699579409 0.076729967 -1.3602314227
