14
0
O -1.9485181 1.8484947724 -0.8739968707
C -1.1256890012 1.2663395174 -0.0538853021
C -0.9728811981 -0.1884896814 -0.358971065
C 0.3467702882 -0.8019718278 0.0486346195
C 1.6189451365 -0.015676006 -0.0555027932
C 1.0543664066 -0.3583355669 1.2912905886
H -2.2883745991 1.2557346645 -1.577018892
H 0.603543483 0.4501949469 1.8512061008
H -1.1939072175 -0.4112540101 -1.4192326415
H -1.784192014 -0.6444470418 0.2318208621
H 0.4226079273 -1.8575278447 -0.1867241154
H 1.54034653 1.0187405768 -0.3680172622
H 2.5128126202 -0.5252577049 -0.390320772
H 1.558637738 -1.1111307944 1.8826295431
