14
0
C -1.2020165122 -0.3215643207 -1.0575296796
C -1.2208277414 0.662782153 -0.0150270702
C -1.1203302226 -0.0960257404 1.1979954594
C -0.0431167617 -0.5538849051 0.0642460959
C 1.3652928009 -0.0737512818 -0.0323335289
C 1.7401926837 1.1826920243 -0.2122633536
H -0.8973692202 -0.00516219 -2.0507785566
H -1.8270001432 -1.2223484907 -1.0536371447
H 0.9978048722 1.9677427087 -0.3020129394
H -1.7395350278 -0.9738786264 1.416831519
H -0.7473754587 0.4078165344 2.0847772347
H -0.0914871116 -1.6325631294 0.1744265749
H 2.1204146745 -0.8501613881 0.0576069708
H 2.789917168 1.4427826521 -0.2736815815
