10
0
O 1.5866222042 -1.6241689189 1.8613740359
C 2.0681815016 -1.161606416 0.9577567863
C -0.3205924573 0.3805908808 -0.7658730147
C -1.2641304505 -0.511377148 -0.4748764974
N 0.0765559954 1.4472938209 0.021386525
H 1.0263088305 1.7537219393 -0.0966477974
H 0.1882990528 0.3382779627 -1.7237610293
H -1.5388612812 -1.2663954987 -1.1964759944
H -1.7937235262 -0.5002069988 0.4712130727
H -0.2141318692 1.4208503766 0.9847109132
