11
0
N -1.9743400012 -0.3503647074 -0.3489874028
C -0.7665282682 -0.0307989695 -0.1497772862
C 0.3281663391 -1.0052413761 0.2237945413
N 1.4269842775 -0.1094959082 0.5582916855
N 1.1672406814 1.154855127 0.1447071072
C -0.0625463252 1.2592435006 -0.2052102906
H 0.0391908685 -1.6357439936 1.064331748
H -2.532373809 0.4671278521 -0.5859837605
H 0.565631378 -1.6459284606 -0.6316233711
H 2.3776030423 -0.3892940227 0.3891133137
H -0.478324183 2.211920958 -0.5013162844
