15
0
N -1.8810326626 -0.1771853114 -0.4352016985
C -0.7728457307 -0.4098179877 0.4890627871
C 0.4291227123 -0.9801443175 -0.2646200248
C 1.2070938818 0.1666634753 -0.8734064649
O 1.701141043 1.0124581356 0.1569379042
C -0.5160981992 0.9090534132 1.1948208683
N 0.6216225166 1.4391091969 0.9852677622
H -2.338731721 -1.0483195188 -0.6690674875
H -2.565044546 0.429864452 -0.0012288219
H -1.0441520108 -1.0996265915 1.3007022351
H 0.1001353025 -1.6728431492 -1.0428640152
H 1.0807808879 -1.5309144181 0.4185714545
H 0.5646644154 0.7475937753 -1.545108768
H 2.0947486721 -0.1619174047 -1.4123851802
H 0.9209614385 2.3064512502 1.4037484498
