10
0
O 3.1760715244 0.8994343185 -0.1484992806
C 2.0825958032 1.2883871862 -0.1656568884
N 0.3546684561 -1.5130701829 0.0034205898
C -0.7474805752 -1.0029135508 0.0157993531
C -1.8562399305 -0.3100448466 0.0103948337
N 1.0038549319 1.8320821727 -0.1896519403
H 0.4072449385 -2.5216132566 0.1020289321
H -2.3840812624 -0.1444367184 -0.9178521027
H -2.277830482 0.0429439093 0.9406962069
H 0.1215045959 1.3438649687 -0.1663917037
