12
0
C -1.5644852231 1.1138253271 1.2602605828
C 0.1987246279 -1.8686614438 0.0023806964
N 0.9501587807 -0.9794522631 -0.6162266194
C 1.7796468692 -0.035643972 0.067696196
O 1.8855428451 0.0497235554 1.2441058361
H -2.6343540139 0.9320326345 1.1664948661
H -1.1800799568 1.4907338273 0.3118805753
H -1.3873590078 1.8563395174 2.0367394314
H -0.3165214908 -2.4298875398 -0.797026435
H -1.0540985536 0.1871095381 1.5207973205
H 0.9988376071 -0.8804836659 -1.6285042326
H 2.3169295158 0.6137544848 -0.6471812176
