13
0
C -1.8873222336 0.5948898676 -0.2199916339
C -0.478316702 0.7828086418 0.2759390931
O -0.0333533095 -0.2712174482 1.1813803511
C 0.6625954429 0.3683772323 -0.6619707639
O 1.0613713596 0.7073072502 -1.7294242805
C 1.006303929 -0.662437008 0.3675951173
C 1.9094255308 -1.6106381481 0.5364785017
H -2.5980430893 0.7025285873 0.5998048941
H -2.0127507676 -0.3926271435 -0.6660498499
H -2.1102573308 1.3507337206 -0.9747409652
H -0.3238410368 1.7619501443 0.7369513984
H 1.9249320151 -2.2317424538 1.4217715664
H 2.6498581922 -1.7659582425 -0.2351624287
