16
0
C -1.028837034 0.894841925 -1.306898331
C 0.2131589976 -1.2668970857 0.3603808126
C 1.6429963623 -1.2954201027 0.040380006
C -0.2041245366 1.1479676425 -0.0510245418
C -0.2492873422 -0.0173026762 0.9661786549
O -1.5538443327 -0.1224938306 1.5019993882
H -0.6227746264 0.0746750336 -1.9035878305
H -2.0562251426 0.6414337188 -1.0444561488
H -1.0510266976 1.7865277707 -1.9353505427
H 2.2095124447 -0.3553317217 0.0582977518
H 1.8442085738 -1.8642487316 -0.8693286136
H 2.0283812488 -1.9443319491 0.8445466014
H 0.8357050462 1.3672116606 -0.3043188161
H -0.5940021008 2.0198762604 0.4773866171
H 0.4431872293 0.2427905235 1.7882516444
H -1.8410200903 -1.0210264372 1.3121523483
