16
0
N 1.1033344859 0.2395147187 1.7199657578
C 0.8986923836 0.063170011 0.3175668645
O 2.1755192348 0.0270312309 -0.2468180755
C 0.0375675452 -1.1719748765 0.0134657851
C -1.364358868 -0.6012639592 -0.1402885086
C -1.0638007559 0.7340508834 -0.8094103145
O 0.1884042961 1.1552922862 -0.2880107016
H 1.6439186309 1.0801792485 1.8767507066
H 0.2199931904 0.326418929 2.203390439
H 0.3844313707 -1.6016272631 -0.9284814046
H 0.1458037022 -1.9249717502 0.7908104329
H -2.0290075126 -1.2279316833 -0.734625903
H -1.8339345237 -0.4461319847 0.8346369136
H -0.9919815556 0.6176843121 -1.8984675635
H -1.804782356 1.506477227 -0.5980519839
H 2.096785732 0.3908166703 -1.1315324445
