15
0
C -1.4291961484 1.4093446705 -0.6413213157
C -0.4481887364 0.3367517111 -0.2744140311
C -0.8168458241 -0.5215608282 0.9066863351
N 0.6149765171 0.2490813852 -0.9623570441
C 1.5954020605 -0.7753835613 -0.6386697714
C 2.2240924362 -0.5822566498 0.6739142758
N 2.6980012071 -0.4189595366 1.7056884269
H -1.6379373844 2.0423298035 0.2251215705
H -2.378724042 0.9623103072 -0.9473020748
H -1.0374641324 2.0186324926 -1.4521688836
H -1.8974175155 -0.5458650037 1.0439136391
H -0.4531936797 -1.5450490072 0.8125851172
H -0.3729548442 -0.1029849073 1.8138933947
H 2.3847809456 -0.7439743471 -1.3902652659
H 1.1677901405 -1.7840575292 -0.6627343727
