14
0
C 1.4859562486 -0.4173709186 -0.5346721359
C 0.0539433455 -0.1761109006 -0.1031660907
C -0.7252558453 -1.2887132892 0.4805632156
C -0.9475937681 -0.8961239849 -0.9365360526
O -1.5954752608 1.4893938791 0.6272447294
C -0.2465648057 1.2622543435 0.2851564915
H 1.6237555671 -1.4247775255 -0.9299074038
H 2.1597027248 -0.2995711475 0.3178577429
H 1.7766211742 0.2893781437 -1.3146963745
H -0.2931671603 -2.2628089961 0.6862793668
H -1.577386159 -1.0385040278 1.1105192077
H -2.1183336239 1.5102902633 -0.1774707053
H 0.3424751687 1.5239753023 1.1680368672
H 0.0683503941 1.9185398583 -0.5358388583
