12
0
O -1.131157044 0.3089007023 1.8571076964
C -1.175356479 -0.2715520247 0.5753983874
C 0.0850941735 -1.0629404638 0.2863463513
O 1.2356308098 -0.2470328352 0.4284952802
C 1.4464057397 1.6355790122 -2.2414011135
O 1.5851608207 2.2827859389 -3.14623629
H -0.2412395779 0.6576295245 1.969274176
H -1.3110004736 0.5007539924 -0.1979587943
H -2.0491908217 -0.9266997999 0.5421578489
H 0.0328915832 -1.5142818575 -0.7119415302
H 0.1924135212 -1.8652462456 1.0188056069
H 1.2940857482 0.3366450566 -0.3339856193
