14
0
C 1.4888462492 -0.1738058038 1.0777240864
C 0.7127336005 0.9074221835 0.3254927512
O 1.5958923548 1.784258016 -0.3422613819
C -0.190945074 0.2550016784 -0.6800210083
C -2.1417730544 -1.0010948143 -0.8579658176
O -1.1867459707 -0.2851672876 -0.0631154028
H 2.0107589344 -0.8277602819 0.3759784815
H 2.2339520238 0.3062856418 1.7115221037
H 0.822918768 -0.7745571319 1.6987305896
H 0.1198344604 1.4959409929 1.0381424467
H 1.4994644287 1.6021320763 -1.2825292902
H -1.8390164407 -0.9557312322 -1.9027828205
H -2.1662296125 -2.0288598859 -0.4987735436
H -3.1137766676 -0.5334631514 -0.7084371941
