14
0
C 1.839498995 0.2594224417 0.3823668424
C 0.4039540422 0.5082910847 -0.0506922148
C -0.3797964709 -0.7227321203 -0.5298979917
C -1.7999040216 -0.3511608599 -0.1694273577
O -1.6404672179 0.6404799906 0.9105480109
C -0.4546533038 1.1416104234 1.0224425422
H 1.876596992 -0.4719659166 1.1926340039
H 2.2935967234 1.1811872135 0.7456888517
H 2.4402030774 -0.1222836505 -0.4451624716
H 0.4001091379 1.2815755933 -0.8355036095
H -0.05655864 -1.610232782 0.0189990806
H -0.2587362366 -0.9199690906 -1.5942662142
H -2.4124959978 -1.1564816563 0.2299714039
H -2.3390990792 0.149516329 -0.9751728761
