11
0
O -1.3398404733 1.6284642637 -1.4151203437
C -0.9539224942 0.8015888139 -0.413826151
C 0.0360893714 -0.0646817751 -0.5598611894
C 0.4509937138 -0.996414692 0.5426415675
C 1.838270987 -0.7855196193 0.9675827281
N 2.925690736 -0.6208776048 1.2927886286
H -2.0465920999 2.2003886765 -1.1156994906
H -1.5062221968 0.8842392908 0.5197687953
H 0.3613463706 -2.0406626451 0.2300039265
H 0.5740929965 -0.1113703697 -1.4995303862
H -0.1911399112 -0.8722373387 1.417475915
