16
0
C -2.8832539876 -0.3476475566 -1.3049399725
C 0.3681528532 0.8886637419 -0.854535012
O 0.0581522592 1.7141415333 0.1210847997
C 0.5665470433 -0.4698613739 -0.2479760483
C 2.0622204802 -0.6976419344 0.0188544052
O 2.6928044053 -1.5718064106 -0.5236556471
N 2.6035555474 0.1561622855 0.9236703525
H -2.701977415 -0.1089271066 -0.2572877346
H -2.6966386621 -1.4073116444 -1.473531153
H -3.9184065265 -0.1183532704 -1.5533754548
H -2.2170434539 0.2419577419 -1.9344729463
H -0.0478821151 2.595004729 -0.2550915889
H 0.0212346207 -0.5893862825 0.6959939035
H 0.2686705302 -1.2321715574 -0.9629601741
H 3.57389688 0.0500779938 1.1591009742
H 2.058609541 0.867099111 1.3741102963
