18
0
C 1.695068337 -1.5012322258 0.9210174721
C 0.9185134385 -0.4824155953 0.1288316933
C -0.8450674904 2.0289891916 -0.5740159234
C -1.3350904211 0.9054579957 0.3305263394
C -0.5721754133 -0.401283698 0.2494134534
C 0.0498494165 -0.9127549238 -1.0193646587
H 1.9080891567 -1.142933906 1.9310807772
H 2.6476580512 -1.7363181923 0.4402208823
H 1.1320246351 -2.4333989148 1.0109690501
H 1.4332877511 0.4620097871 -0.0148225964
H -1.4447539738 2.9276467516 -0.4210830125
H 0.1945513584 2.2935841056 -0.3701483591
H -1.3134678645 1.2500176996 1.3698678115
H -2.3865438424 0.7023673744 0.1025629786
H -1.0050086376 -1.1759086354 0.8763517572
H -0.9232215527 1.7627686434 -1.6299469342
H -0.0240660801 -1.9733285525 -1.2281148712
H 0.0243441317 -0.2858039051 -1.9013178597
