12
0
C -0.5071720143 1.1191321124 -0.1664273738
O -0.6221766996 0.282775864 -1.3028556579
C -0.404222566 -1.0286105937 -0.9953132514
C 0.7080025031 0.7315145278 0.6554089933
O 0.5827182497 -0.598713123 1.1237784513
C 0.1338974748 -1.441138027 0.1486094564
H -1.4109947121 1.0272095547 0.4467396236
H -0.4244075804 2.1433082642 -0.5300201057
H -0.713141494 -1.7146030724 -1.7697993428
H 1.6114628367 0.8165087623 0.0406180257
H 0.8091066757 1.3715177505 1.5317417306
H 0.2603463266 -2.4871430198 0.3850604509
