15
0
C -2.1467141218 -0.2343224086 -0.1864264405
C -0.8533261022 -0.8007548415 0.2502105066
C 0.3585079723 1.1066949562 -0.454788907
C 1.603673163 1.7324173885 -0.5712935402
N 2.6326240499 2.2526613641 -0.6684189664
N 0.261358881 -0.1337776977 0.0978076391
C 1.5103046077 -0.7576697035 0.5502210732
H -2.3619314917 0.7104532762 0.3290240146
H -2.1416426016 -0.0116875792 -1.2611540821
H -2.9573486048 -0.9305154667 0.0172767735
H -0.7791661057 -1.7750759375 0.7063253551
H -0.5348220042 1.5921906314 -0.8023114998
H 2.1868636547 -0.8560632767 -0.2961725733
H 1.2871214927 -1.734489354 0.9679726872
H 1.9755482108 -0.1228673509 1.3013309598
