14
0
O 1.5403516531 -0.9664600387 -2.5267953459
C 1.188438114 -0.3489427025 -1.5620093458
C 0.4210372582 1.0194012301 1.0983214215
C -0.2594871355 -0.3216478958 -1.1088263369
N -0.404913398 -0.0285216797 0.3005242706
C -1.0754253609 1.0705146085 0.9887851683
C 0.4003266872 -0.4442226355 1.4434097718
H 1.878335808 0.2676055172 -0.956260209
H -0.7574313715 0.4764529435 -1.6661240944
H -0.7415277165 -1.2669982099 -1.3651609773
H -1.490555309 1.8391135954 0.3431273603
H -1.7548007093 0.7214225004 1.7698595851
H -0.2017122241 -0.8684275472 2.2499928725
H 1.2917817042 -1.0189326859 1.2043168593
