16
0
C 2.5402228479 -1.1452075131 1.1275824516
C 1.4294342658 -0.6010589918 0.6470139156
C 0.1792745817 -1.208328315 0.2107306742
C -0.6405805898 -0.2261233525 -0.1952152926
C -2.0256819391 -0.33700368 -0.727156235
C 0.0287343617 1.1086403256 -0.0483685695
N 1.2129160221 0.7853842433 0.4430150641
H 3.3937537113 -0.5409813491 1.4090689238
H 2.6190475572 -2.2167395801 1.2503145105
H -1.9950827891 3.479155409 -1.7816846858
H -0.0064251931 -2.2732779194 0.2307137742
H -2.0751578067 0.0782029284 -1.7363096872
H -2.7099018839 0.2542411304 -0.1145919032
H -2.3757389504 -1.3693630061 -0.7526735272
H -1.5380236606 3.0584763074 -1.3632301618
H 1.9178764652 1.4703843631 0.6588027483
