15
0
C -1.3400554125 1.2649707589 -0.6698617834
C -0.3903295225 0.1553103446 -0.3686061977
C 1.0922191306 0.0847893166 -0.7614529922
C 1.3361882074 -0.6183339323 0.5719913867
N 2.4057435583 -0.9163802869 1.1577437279
C -0.1267038282 -0.5830748011 0.9039456374
N -0.8095403382 -1.2367583652 -0.2451010306
H -0.8959073556 2.2315032832 -0.4264800028
H -1.600934677 1.2710682523 -1.7308698197
H -2.262997976 1.1611042668 -0.0951285586
H 1.5906445178 1.0550340325 -0.7825747486
H 1.3143842449 -0.4794175677 -1.6665489535
H -0.6073334359 -0.5215211745 1.8718131349
H 2.2185344542 -1.292292088 2.0861035435
H -1.8017915675 -1.2478940393 -0.0210753435
