11
0
O -2.2512748945 0.7776427497 1.8271978623
C -1.3502613078 0.7802069197 0.8400116342
N -0.161377639 0.4171126083 1.0112850234
C 0.7230808446 0.466628844 -0.1374485358
C 1.2265102206 -0.8619863368 -0.4922897441
C 1.6360764297 -1.9451964091 -0.7929149063
H -1.7854186451 1.1333168866 -0.0981869085
H -1.8049505346 0.4473133242 2.6175062899
H 0.2416284701 0.9061832433 -1.0222285726
H 1.5759686347 1.1037853793 0.1108270074
H 1.9999274212 -2.9102052093 -1.0557051499
