13
0
C 2.5440682684 0.7594547041 -0.7212360113
O 1.2719666037 1.3072960243 -0.5098902142
C 0.256981852 0.3432632967 -0.592472817
C -2.8103799087 -1.381867764 -0.1338631546
O -2.1734969905 -2.1801399797 -0.6845885026
N -3.3796114691 -0.4539649956 0.3872445613
H 2.6294660836 0.3134476301 -1.7217039585
H 2.7765479044 -0.0154324686 0.0222678033
H 3.2710387961 1.5656423675 -0.6290373016
H 0.3897866269 -0.444366412 0.1619790574
H 0.2306587032 -0.1325874515 -1.5820387786
H -0.6925874403 0.8475549402 -0.4151941505
H -4.2006690298 -0.5115188917 0.9603284667
