16
0
C -1.3163171225 -0.6044915155 0.8703147243
C -0.1334011063 -0.2081615775 0.001354015
C -0.3541568659 -0.5542024737 -1.4624355137
C 1.2558028152 -0.5653514164 0.5655886054
O 1.5714813991 0.8446682835 0.721366789
C 0.3477836135 1.2123155012 0.2275156604
N -0.1494802919 2.342652683 0.04655062
H -1.4974477478 -1.6798962929 0.8002888161
H -1.1455698903 -0.3518809585 1.9182431554
H -2.2161007549 -0.0835055998 0.54021284
H -1.2340912795 -0.0339539966 -1.843329231
H -0.5131550736 -1.6288068359 -1.581707268
H 0.5001115713 -0.2630445055 -2.0761388678
H 1.2656010326 -1.0741717426 1.5302977463
H 1.9480501695 -1.0442473925 -0.1280617647
H 0.4884725314 3.0856958397 0.3213856732
