8
0
O 0.4919499873 -0.9517096258 -0.5706599199
C 1.2510816101 -0.0216569006 0.1096158617
C 0.5607388792 0.9916379184 0.7080397712
C -0.741280273 0.6087362223 0.3346347439
N -0.7551197457 -0.503808244 -0.3949959915
H 2.3005360399 -0.2729561319 0.0435399127
H -1.4755252094 -1.0582728312 -0.8253488396
H -1.6972022883 1.0728605928 0.5485744614
