18
0
C -0.8218908008 -0.6917869686 -0.3648035639
C -1.5392742414 0.5373678734 -0.9084588234
C -2.5752134029 1.0876446435 0.0628651579
N 2.7006571201 0.0007621325 0.7100457795
C 2.8290021829 -1.425804055 0.6375139932
C 2.2306478678 0.9164886902 0.1071662882
O 1.8151126224 1.8863786255 -0.394907445
H -0.3181866188 -0.4629540187 0.5790791337
H -1.5235461177 -1.5071049266 -0.1706165369
H -0.071792191 -1.0595744258 -1.0693922221
H -2.0234815829 0.2843258081 -1.8564292419
H -3.0794532656 1.9646032686 -0.3469279317
H -3.3389338966 0.3398486685 0.2921578921
H -2.109027545 1.3847252398 1.0057167012
H 3.3184117766 -1.7844887632 1.5407905658
H 1.8494659386 -1.9005985764 0.5604174535
H 3.4339174525 -1.7157050845 -0.2230318514
H -0.8036472983 1.3132208683 -1.1351863492
