13
0
C -2.1036710035 -1.0059845522 -0.5913971059
C -1.1087901398 -0.4540859969 0.3765433136
C 2.0031395802 0.3262076662 0.2154253021
C 0.694513328 1.0169751652 0.5125579837
O -0.3648323205 0.4022766301 -0.2513330048
H -3.0978535663 -0.916146263 -0.1468034563
H -2.0824733301 -0.5552392078 -1.5885744533
H -1.9144143106 -2.0820308129 -0.660912307
H 2.8163960895 0.8247849231 0.7453679398
H 2.2233648385 0.3496553828 -0.8528480823
H 1.9633516801 -0.7140033509 0.5425746398
H 0.4231226005 0.9436106979 1.5658672587
H 0.708278554 2.0626637183 0.202223972
