13
0
C 0.5083213234 -0.9186106939 0.2817520061
C 0.9749862601 0.0745189826 -0.7614493407
C 0.4064230774 1.2861044925 -0.9918310984
C -0.5618848746 1.5780452247 0.0263632731
N -1.4377433657 0.505214844 0.1215891012
C -0.7685579866 -0.4371512133 1.0277453476
H 1.3309434919 -1.1152628342 0.9777211485
H 0.3029653001 -1.8749619675 -0.2109602929
H 1.9334152126 -0.1466218159 -1.2233994859
H 0.9079333741 2.0247175564 -1.6059259563
H -0.5065050861 0.0880919428 1.946889845
H -1.5166943828 0.0050267582 -0.7682730141
H -1.438977344 -1.2636212764 1.2668804669
