17
0
C -2.0077167489 -0.3657808035 0.0727802801
C -0.6043670306 0.0044963836 -0.3715992843
O -0.2214820756 1.148295014 0.3644632044
C 0.699285282 1.9805092873 -0.288564565
C 1.801503459 -1.0171150032 0.1581943502
C 1.0524065446 -1.3697600893 1.1434337854
C 0.3494963451 -1.1694287057 -0.1625887695
H -2.705873389 0.4451689466 -0.1363828126
H -2.0144469886 -0.5591830468 1.1474397921
H -2.3522312781 -1.2652521008 -0.440783809
H -0.6216315458 0.2573211192 -1.4434257429
H 0.2901570782 2.3604930051 -1.2340024606
H 0.89931513 2.8224226383 0.3735497835
H 2.781135691 -0.7737736733 -0.2146879477
H 0.9507873791 -1.6258214711 2.1829360197
H 1.647106925 1.4735523603 -0.5029780525
H 0.0336572224 -2.0494898607 -0.7290827712
