16
0
C 1.7599534905 1.1395096198 -0.6612146126
C -0.2062924963 -1.3447259858 0.94490881
C -0.4856677976 -0.1606842649 1.4726531253
C -0.3430610184 -1.3374749083 -0.5532645727
C -0.3895657919 0.1717311256 -0.8953472714
C -0.8689584985 0.8357126456 0.4113474475
N 0.9288155997 0.547530875 -1.3951835919
H 2.7449757924 1.364030705 -1.0677723808
H 1.572137925 1.4459892128 0.3727238317
H 0.0618317365 -2.2299670381 1.5083135661
H -0.4835808968 0.066979431 2.5317689507
H 0.4823448533 -1.8288590947 -1.0719207269
H -1.2645629221 -1.8423187786 -0.860867541
H -1.0815651603 0.3643048438 -1.7158018436
H -0.4495642645 1.8329548587 0.5624864122
H -1.9562325511 0.9641997529 0.3858443974
