11
0
O 0.9490986098 -1.7130653878 1.2746817694
C -1.2322770791 -0.0816520756 -0.6133221052
C -0.4149771042 1.2009136814 -0.7541599238
C 0.074770755 0.0618659694 0.0178696922
C 1.0302895428 -0.4528851986 0.7532621328
H 1.7434812412 -1.8999551975 1.7746248683
H -1.3197743835 -0.721970021 -1.4838514814
H -2.117304507 -0.0502552375 0.0123364131
H 0.0309581282 1.4064542574 -1.7211862574
H -0.7652974344 2.0803298711 -0.2251272177
H 1.9338782313 0.1053943387 0.9812261098
