12
0
N 1.9391139527 0.0331789956 0.3036762948
C 0.6666083491 0.1363433549 -0.3715040263
C -0.2258706025 1.3278265054 -0.1620424035
C -1.4729263425 0.7639707611 0.0772415147
C -1.3898840741 -0.6392859745 0.1320994951
N -0.1631783257 -1.0515245969 -0.0789589397
H 2.600952784 0.6452869474 -0.1538069285
H 1.8405567973 0.3843731922 1.2490217466
H 0.8363489813 0.1260233083 -1.4579888467
H -2.3983015727 1.296999635 0.2512143229
H -2.1814360528 -1.3581244311 0.3199343795
H 0.1549541058 -2.0051656972 -0.089496609
