12
0
N 2.1913339291 0.8218296398 -0.1647974553
C 0.9791278947 0.1483806715 -0.018496199
C 0.7889608983 -1.1740784697 0.1795401298
N -0.7511130607 -1.1917280763 0.0914650012
C -1.164246118 0.1926153639 -0.1124766569
O -2.4766866818 0.4130449728 -0.1902312662
N -0.1936781606 0.9771167781 -0.1807274333
H 2.964951118 0.2229808122 0.0810876029
H 2.2232143531 1.688628948 0.3509939085
H -1.0443476258 -1.7916546829 -0.6780649653
H -1.1388183965 -1.5854527217 0.9467039743
H -2.61177715 1.3558717644 -0.3375726405
