17
0
C -1.8419106233 -7.43908e-05 0.3934579385
C -0.4446346802 -0.3361984408 0.8679215266
O -0.4206074874 -1.7302209977 1.1339484572
C 1.8412785639 -0.8082143259 -0.1902577708
C 0.8813539887 -0.8085954777 -1.3263240654
C 0.6239201416 0.0506461228 -0.1491309393
C 0.9385485973 1.528593567 -0.258640427
H -1.9398639268 1.067416281 0.1908346147
H -2.0688091713 -0.5517925502 -0.5205148694
H -2.5715410904 -0.2773665004 1.15475223
H -0.2267429449 0.2187672022 1.7911307968
H 0.398809809 -1.9409510635 1.5899071809
H 1.2017479185 -0.3993339003 -2.278725218
H 0.3574648841 -1.7593957879 -1.4048243046
H 0.1372735787 2.0535837328 -0.7837849039
H 1.0606883384 1.9692884573 0.7328960095
H 1.8626011038 1.700590072 -0.8138872557
