11
0
C 2.3425697511 -0.4235772055 -0.2148125589
C 2.0728496075 0.9233484296 -0.0406416198
C 0.5953696648 0.6167321217 0.1023884291
C 1.040445976 -0.4846193995 -0.7237478372
C -3.0819034415 -0.6505478988 0.3479723501
N -3.9760661514 -1.3410438695 0.1612045615
N -0.4454268183 1.043299583 0.6533691762
H 3.2246812754 -1.0422333747 -0.2533219476
H 0.7027269442 -0.7854590062 -1.7126980962
H -2.2263372932 -0.0036809871 0.5153317244
H -0.2638385147 1.9051336071 1.1618028183
