12
0
C -2.4482130514 0.1209987085 0.2189335044
C -1.1247514112 -0.3654597472 -0.2356424702
C -0.0459986606 0.2409889717 0.4445636239
C 1.2061278276 -0.1568020048 0.1353847063
C 2.6353465708 -0.1466496237 0.2349182944
O 1.8191429018 -0.9961114292 -0.6535303085
H -3.1428878785 0.2202744729 -0.618103689
H -2.8571231446 -0.7070711333 0.8155134763
H -2.4657620311 1.0313525054 0.8379315759
H -0.126855774 1.0223849374 1.2068217946
H 3.1281255655 -0.685838499 1.0355933674
H 3.2093980856 0.6127868416 -0.2830438757
