13
0
C 1.8975409979 -0.0513566289 -0.3346137824
C 0.579037963 0.2907210144 0.2033152448
O 0.2416073485 1.4230801227 0.9564856694
N -0.6346095482 -0.1629681581 0.0149809034
C -1.3168506868 -1.0914522454 -0.691403997
C -1.1102900644 0.9675804888 0.8090396543
H 2.1181422005 0.4777081442 -1.2692233064
H 2.6731808389 0.19749163 0.3908945617
H 1.9405876821 -1.1238526114 -0.5340725012
H -2.3050147181 -1.3242824396 -0.3264540056
H -0.7288915453 -1.8392821657 -1.2005273667
H -1.5658148442 0.6813422525 1.7561373949
H -1.7232266239 1.6560885968 0.2316975309
