15
0
C -1.9241433094 0.409352945 0.3457103823
C -1.1607455903 -0.7631612758 -0.2573766126
C 0.2790794927 -0.8647761438 0.2405352433
C 2.4189280075 0.9227319081 -0.2365878884
C 1.1415753544 0.24355437 -0.2178888403
N 1.1191267733 1.2461870901 -0.9581871674
H -1.9597815192 0.3360203532 1.4358437341
H -1.4562778639 1.359699461 0.0853086929
H -2.9523641903 0.4326538797 -0.0184661061
H -1.6724774388 -1.6996341354 -0.0208296211
H -1.1527875837 -0.6782675094 -1.3472551171
H 0.3181218044 -0.8939000979 1.3347083048
H 0.7467139246 -1.7957092375 -0.0959053473
H 3.2358980288 0.5513574059 -0.848713623
H 2.70383311 1.5903479867 0.5714739659
