13
0
C -1.7700880436 -0.4639845911 0.1401190824
N -1.7438987272 0.994930533 0.1769011648
C -0.9012304547 0.271207656 -0.801582188
C 0.5597697526 0.2391604128 -0.7005025913
C 2.345014018 -0.366614719 0.7076935235
O 1.1003209667 -0.2854241248 0.347518242
H -1.2869939893 -1.0108929914 0.9419245238
H -2.6961819461 -0.8992390591 -0.2168513503
H -1.1611684177 1.3063960856 0.9465058259
H -1.2506869992 0.4004105704 -1.8199847444
H 1.2115267135 0.6992625794 -1.4340885482
H 2.5201154562 -0.8933496594 1.6284753247
H 3.1112186708 0.0524153075 0.0703457352
