15
0
C -1.265284655 -1.2698684932 0.8089189515
N -0.0104635455 -0.5303473251 0.7932533125
C 0.7273939057 -0.6457606405 -0.4879885195
C 2.0268431849 0.1108370869 -0.2952235447
C 1.3995445177 1.2469486947 0.0135840983
C 0.0205118518 0.607470176 -0.1659722323
N -1.1683449123 1.1216877321 -0.7257541641
H -1.7709993808 -1.3212592143 -0.1613021595
H -1.0576052381 -2.2811275118 1.1624242813
H -1.9451260563 -0.7940868785 1.5174038745
H 0.45637378 -1.3995858087 -1.2142173941
H 3.0551727699 -0.2174707894 -0.2248788658
H 1.7266207282 2.1938705054 0.4244940206
H -1.5209015456 1.9074588154 -0.1968975911
H -1.0365804045 1.4088746509 -1.6847670675
