19
0
C 2.5441539854 0.03208268 -0.7289148327
C 1.1090805698 -0.4620077955 -0.8680783569
C 0.5838544296 -1.2016104241 0.2884876212
C -0.7771404152 1.4962103111 0.9644444537
C -1.4937981946 0.1714576994 0.9244194296
C -1.9097544958 -0.4933176204 -0.3192498878
C -0.829327087 -1.1800732035 0.5276804136
H 2.9377987786 0.3871217096 -1.683459556
H 3.1831347391 -0.7665680427 -0.3525933938
H 2.5964027598 0.8601109133 -0.0191218129
H 0.4705675646 0.302454028 -1.3345366874
H 1.0937984751 -1.3133146219 -1.57771942
H -0.1267888542 1.5661619866 1.837417431
H -0.1759520167 1.6820362762 0.0767491206
H -1.5166803008 2.2969392339 1.0330720002
H -2.1488029828 0.022034007 1.7753080692
H -2.865410427 -0.999730225 -0.3506885667
H -1.5988222876 -0.0532649666 -1.2576438201
H -1.2013072402 -1.978635945 1.1606197951
