12
0
O 0.8404758004 2.2102293056 0.2796587016
C 0.4981954101 1.1233854493 -0.1136297907
C -0.6597759625 0.7217111745 -0.9060304241
C -0.5740336305 -0.6059497292 -1.0668419179
O 0.4811196653 -1.2051443894 -0.4994592188
C 1.2480508339 -0.1826435573 0.1426695951
H -1.4290191413 1.3735055712 -1.2845255765
H -1.4775443744 -0.5299875214 1.8637914655
H -1.3016565542 -1.0665229162 2.3503849226
H -1.2382725421 -1.2779457177 -1.5942197557
H 2.2469242798 -0.1601980909 -0.2940090224
H 1.3156922155 -0.4017465784 1.2084380212
