11
0
C 3.461957726 0.4611588595 -0.230728697
C 2.163797367 0.3459066107 -0.1521776233
C 0.8986348198 0.2334443558 -0.0746936243
C -0.3677109071 0.124041045 0.0050214414
C -1.6514517802 -0.0076784809 0.0531346565
C -2.9434732119 -0.4664470311 -0.3624018826
O -2.710696777 0.382023998 0.7992605393
H 4.1192931962 -0.2424569312 0.2687393029
H 3.9215847825 1.2657456486 -0.7947315973
H -3.2567749355 -1.4778378308 -0.1259246128
H -3.4500532796 0.0254967564 -1.1859739027
