15
0
C 2.0052987444 0.0305823897 0.2970168261
C 1.2944331121 -0.7963290319 -0.7652316826
C -1.9506596341 0.2829726054 0.4958588707
N -1.287865878 1.2768239036 0.7760200841
O -0.8699175154 2.0287285602 -0.3212942773
C -2.6580986949 -0.7951064632 0.3310177047
H 1.3207080798 0.3123427544 1.0993465898
H 2.8341214317 -0.5205748519 0.7459415344
H 2.4145555432 0.9496335159 -0.1280026445
H 0.4736548128 -0.235402887 -1.2163240361
H 1.9766452795 -1.0867552592 -1.5667215832
H -0.3449779441 2.7206972617 0.0890239444
H -3.7385671043 -0.7444249588 0.307105754
H -2.1713929217 -1.7531781607 0.2051342636
H 0.8793866891 -1.7132623782 -0.3404953482
