14
0
C 2.0602444096 0.9473263359 0.0775608223
N 1.6288713738 -0.4240007474 0.220582178
C 0.414002667 -0.7073167521 0.0349476833
O -0.0177932127 -1.976053702 0.1627331542
N -0.6016968597 0.1563414109 -0.3029736844
C -1.9289676799 -0.1664925147 -0.4974356611
N -2.7545362625 0.738056468 -0.8102790946
H 1.5578186046 1.620185768 0.7844805135
H 1.8968471584 1.3339522022 -0.936738588
H 3.1287289443 1.007060732 0.2776213875
H 0.7654847711 -2.4863822123 0.3979885752
H -0.3687235364 1.12828943 -0.4269234976
H -2.1499015666 -1.2229327495 -0.353923273
H -3.6848728111 0.351009331 -0.9174445152
