10
0
O 1.8263036406 -1.3345720708 0.4170891327
C 0.8448905453 -0.4836751296 0.333906285
O 1.1234027016 0.8040749702 0.2996252833
C -0.3540466691 0.9482432641 0.3739021682
C -0.9954064324 0.3654708917 -0.7915309527
C -0.5571488586 -0.5848727209 0.3620118137
H -0.6966654373 1.6583795299 1.1101615778
H -2.0671728283 0.4996591821 -0.8759761576
H -0.464386425 0.3574923352 -1.7386735582
H 1.4364167631 -2.2168582518 0.4691924076
