16
0
C -1.0872245011 0.4882180106 1.2535040992
C -1.1470357012 0.3220785343 -0.2386092814
N -0.6045212065 1.4073167371 -1.0434276056
C 0.0690494452 0.1132985185 -1.0847361792
C 1.4439414358 0.0453894009 -0.5247572866
C 1.8941735196 -1.0004247286 0.1582058723
O 1.1824782822 -2.1137863141 0.4606670914
H -1.8879078531 1.1487573615 1.5914255749
H -1.2008185199 -0.4710940853 1.7639966212
H 0.2830944436 -2.0074040849 0.1353665664
H -2.0553076997 -0.1465480852 -0.6113252499
H -1.1532119037 1.556617187 -1.8800975116
H -0.092935628 -0.4800535199 -1.98397232
H -0.1351038888 0.9253682155 1.5518112363
H 2.1078706321 0.8829610774 -0.692672153
H 2.9015261436 -1.0561062247 0.5512325258
