12
0
C 2.3410407532 -0.6624949195 0.7092627133
O 1.7686287908 -1.1010484419 -0.2493954091
C -0.6213616723 0.8338773256 0.097971223
C -1.6376126838 -0.0993633369 -0.4782862894
N -0.437144307 1.1203943116 1.3159129257
H 0.0448382337 1.3097531014 -0.6259372054
H 1.8918419478 0.1260271281 1.3396269719
H 3.3428790424 -1.0333277867 0.9989962054
H -1.1241486466 -0.9199000627 -0.9844972558
H -2.2463267164 0.4154370603 -1.225353922
H -2.2914616265 -0.5085877436 0.2933768729
H -1.1052851154 0.6225403643 1.9057931699
