13
0
C 0.6974868822 0.6145995747 0.9043718349
O 1.0941064266 -0.6803322713 0.4440537263
C 0.0161120224 -1.5023451105 0.0737445791
C -0.9022699185 -0.7206845123 -0.7524392381
O -1.2189032372 0.6190197036 -0.5559346315
C -0.0698967818 1.3499231203 -0.173294681
C 0.3266272671 -1.2798682465 -1.4038757654
H 1.6195174378 1.1403917908 1.150068513
H 0.0904901046 0.5011444346 1.8082073512
H -0.1470521931 -2.3996887528 0.6575835389
H -1.7597051836 -1.2955800198 -1.1042121325
H -0.4130236258 2.3176834615 0.1919698486
H 0.5803787993 1.4998518276 -1.0433849437
