15
0
C -1.0181649634 -0.3032415109 1.0810311547
C -0.8813395633 0.8254884503 -1.2080704007
C -0.1222550545 1.6596213591 -0.2333615253
N -0.1639319754 0.2087410852 0.0105602149
C 1.107300968 -0.4953336397 -0.1376724417
C 0.9089336755 -1.8915445546 -0.539633995
N 0.7761635359 -2.9910326498 -0.832995654
H -1.9316799461 0.2828247432 1.078936953
H -0.509147368 -0.2285280374 2.0457934092
H -1.2689926943 -1.3427206831 0.8685626637
H -0.2349026892 0.5881613029 -2.0617073939
H 0.8914644776 2.0293115506 -0.3941370102
H -0.6669312787 2.2423794095 0.5060690759
H 1.6956896261 0.0096889515 -0.9026306538
H 1.6684492498 -0.4827037768 0.8016466033
