10
0
N 0.5807431216 0.9752725562 0.1320048752
C 1.4587551566 -0.3057790128 0.240223494
C 0.4888265298 -1.2442410282 0.3586676247
C -0.8678624738 -0.7102704144 0.3355950256
C -0.8306488366 0.6148448192 0.2008318542
H 0.8403028624 1.4281307213 -0.7418690784
H 0.8776571273 1.59119494 0.8859925999
H 0.7031641987 -2.2990281867 0.4612406386
H -1.7793963277 -1.2878853434 0.4128744242
H -1.6021243583 1.3651229486 0.1390845421
