9
0
O -0.6794452989 1.3915747558 -0.3306404889
C -0.322088268 0.0394396807 -0.3866384447
C 1.8148116304 -0.800181927 0.7269570328
C 1.1627306813 -0.1639970476 -0.192418073
C -1.1035160698 -0.7707865273 0.5730889224
N -1.7281989852 -1.371605139 1.3227411117
H -0.472144187 1.7362317459 0.5431385774
H -0.5920380586 -0.2980107307 -1.389198814
H 1.8441435556 0.3120851891 -0.9038868236
