13
0
C -0.9349304774 -0.1739334406 -0.6209515055
C -1.3759703983 -0.7320898401 0.7960842517
C 0.0448122022 -0.9526146293 0.5875023482
C 0.4545352086 0.3242654051 0.0566321036
C 1.7297942228 0.4560940249 -0.7313109636
H 0.1597618761 1.2477145689 0.5717818051
H -1.4945017857 0.7336047149 -0.8133510027
H -0.9060195012 -0.8321763151 -1.4780164101
H -2.0192951905 -1.6040366547 0.8587777743
H -1.7522476393 0.1242516699 1.3647114141
H 2.5592091086 0.6808138832 -0.0575316182
H 1.9532997174 -0.478671067 -1.2452350054
H 1.6689876566 1.2638416796 -1.4638761914
