11
0
C 1.276479579 0.1414744213 0.0288329266
N -0.0927787007 0.4305980174 -0.3699323506
C -1.2087210535 -0.0080180557 0.476955556
C -1.0964992613 -0.6256114444 -0.8762488529
H 1.2927989176 -0.8295847369 0.5207479523
H 1.65622714 0.9033599404 0.7134337418
H 1.9085929223 0.0953764971 -0.8582988618
H -0.8544156638 -0.477960566 1.3948262557
H -1.9675269038 0.7497015642 0.6584822472
H -0.5477877174 -1.572037738 -0.7839208336
H -0.2048562586 1.3260331006 -0.8201577807
