17
0
O 2.5541889065 -0.7318538421 1.7800904261
C 1.3517032916 -0.4594609699 1.1945189052
C 0.9848076829 0.7837303128 0.9219758889
C -0.317847738 1.1997511682 0.304549747
C -1.3742875843 0.115969728 0.1291232415
O -0.9922654606 -0.9912911852 -0.6580485515
C -0.673780515 -0.6733636154 -1.9877581011
H 2.6602050359 -1.6792637625 1.8597622964
H 0.2711713286 -0.122996542 -2.0644273866
H 0.7279402848 -1.3156865245 0.9593908964
H 1.6852891797 1.5777889074 1.1648978416
H -0.7764462134 1.9751116706 0.9287472352
H -0.1285246998 1.6912531838 -0.657008433
H -2.2782972471 0.5724929935 -0.2998923323
H -1.6435183587 -0.301291918 1.102111756
H -1.4687370209 -0.0794732877 -2.4587647697
H -0.5737768719 -1.6142663169 -2.5277386601
