15
0
C -1.9621087596 0.3309830122 0.1956681338
C -1.5403473261 0.6809116048 -1.2246515041
C 1.6686034667 -0.7614089107 -0.0520927699
C 2.206020554 -1.9336559531 0.2362469758
O 2.6813574431 -2.9427389334 0.5035441008
C 1.9595605911 0.4042268183 0.7767595028
O 1.4954505578 1.4966877134 0.5750293368
H -1.2148583021 -0.2930008869 0.6910010549
H -2.9089937019 -0.2125788283 0.2100880701
H -2.0828942896 1.2305252946 0.8010942031
H -2.2924234271 1.2951183924 -1.7234682197
H -1.4036992612 -0.2170012934 -1.8337463477
H 1.0102880513 -0.6888569168 -0.9072325509
H -0.6034779863 1.2414090742 -1.2250880186
H 2.6490253899 0.2238498126 1.6243690331
