14
0
O 0.7715433617 -1.8214486218 1.4950569132
C 2.1538295752 1.4046533358 -0.4393534876
C 0.8939059868 1.1702856438 -0.1120317831
C -0.2942266824 0.9491051841 0.2240298724
C -1.6265426835 0.6565646738 0.3849161897
C -2.0702828886 -0.5468283586 -0.3982950247
N -1.9086536515 -0.7608296845 0.8937024848
H 1.0637387513 -0.9429933618 1.2243934995
H 2.8222267249 0.5966381213 -0.7091965855
H 2.5455136364 2.4133630584 -0.4569573495
H -2.3450276416 1.3976268528 0.702495098
H -1.5844238769 -1.11994419 -1.1888627995
H 1.4346532472 -2.4359790039 1.1788001504
H -1.1612648591 -1.3869206493 1.2278138217
