15
0
C -2.7059112239 -0.2936763068 -0.0258584713
O -1.6675195111 0.6534177174 0.1843450279
C -0.4108261075 0.2584617594 -0.0611619551
O -0.3201691148 -0.7204090983 -0.9753127463
C 0.6296935298 0.8279410465 0.5573757311
C 2.0493527523 0.5253357541 0.2055149225
O 2.1925049158 -0.8736751716 -0.1010868191
H -2.5171161784 -1.2145585589 0.5305473451
H -3.6116879933 0.1785463718 0.3480973747
H -2.8228975371 -0.5300597722 -1.0836869031
H 0.4249938029 1.560716028 1.3231263487
H 0.5898844152 -1.0653816169 -0.9187552187
H 2.3850888702 1.1073838192 -0.664237081
H 2.6992678301 0.7822394721 1.0471588723
H 3.0481075498 -1.0148824439 -0.5094614276
