12
0
C 1.4908968348 -0.1953226943 -0.3665350456
C -0.7600931195 0.5785602577 0.3712819993
O -0.9577867971 1.6833254894 0.807495173
C 0.4156172463 -0.2862321119 0.7216559036
C -1.7777299429 0.0338767299 -0.6427318812
O -1.7207124108 -1.0668681943 -1.1093762147
H 1.1099529585 -0.5435792921 -1.3275166311
H 2.3450703259 -0.8181010199 -0.1011810749
H 1.8418689625 0.8311993529 -0.4821481935
H 0.0798307255 -1.3206859045 0.8185513568
H 0.805787169 0.0573239846 1.6796945551
H -2.5763349521 0.7593994024 -0.8914099468
