18
0
C -0.8608719635 -1.6867350028 0.4472800944
C 0.3968869169 -1.6948166229 -0.3923604702
C 0.5635122135 -0.612582907 -1.3942721753
C -1.6469119325 2.2799990826 -0.5002614737
C 1.5435125315 -0.7393633036 -0.2862263827
C 1.6551525698 0.4214188953 0.6775700869
H -1.6849635596 -2.1492846484 -0.097970246
H -1.165150263 -0.6721217178 0.7045489836
H -0.7070924976 -2.2353874616 1.3784998937
H 0.6981003174 -2.6780616028 -0.7454053328
H -1.2134253185 1.5074324705 -1.1358945918
H -0.8871831539 3.0247021977 -0.2660243862
H -2.0190774742 1.8378064467 0.4240318739
H -2.4735096924 2.7592310148 -1.0229109925
H 2.4941465236 -1.1805673179 -0.5747186784
H 0.68831591 0.8936031618 0.8531204563
H 2.3255625259 1.1834909233 0.2775376502
H 2.0433053465 0.0845473922 1.6408086906
