15
0
C -1.6411331128 0.5522440362 0.4994567202
C -0.4905768965 -0.1423422704 -0.1906004498
C 0.3233749351 -1.2115470362 0.5629003328
N 1.5488884298 -0.644274156 -0.027510708
C 0.8540512365 0.6008748166 -0.3359147717
O 1.2014780523 1.1944370955 -1.5460046008
H -1.9993536685 1.3941511871 -0.0967273978
H -2.4806017629 -0.1286298099 0.6558093042
H -1.3377783736 0.9373947822 1.4762275981
H 1.311466416 0.4817431177 -2.1823806557
H -0.7935738944 -0.5200884394 -1.1704073732
H 0.144382102 -2.2599355849 0.317911697
H 0.2496685485 -1.0823256603 1.6492185129
H 2.3654785301 -0.5802341774 0.5642018731
H 0.9704244586 1.3876700995 0.4199889187
