14
0
C -1.0253162167 -1.0988860855 -0.3124738643
C 0.119794907 0.056336225 -0.4616249673
C -0.9715433895 1.1465921805 0.0055869433
C -1.0921874914 -0.1016061866 0.7108069177
O 1.5051227374 -0.0383530213 1.5476966718
C 1.5078480915 -0.0524397978 0.153145072
H -1.6249574535 -1.0620627745 -1.2274807539
H -0.7190447037 -2.1018251763 -0.0295125787
H 0.1568174378 0.1862008876 -1.5388304606
H -1.5802512989 1.395466056 -0.8688446968
H -0.6318939771 2.0120274578 0.5662580704
H 0.5649062285 -0.1590936994 1.8020289281
H 1.9696229245 -0.9731970767 -0.2302095321
H 2.1077932042 0.7877920113 -0.2152797494
