16
0
C -2.0852899613 -0.6500471723 -0.2965030819
C -0.6176102367 -0.3716910796 -0.5584053742
O -0.5412990115 0.8264832247 -1.3032252445
C 0.1684411548 -0.2859526955 0.7485868047
N 1.6213351541 -0.3747919951 0.5769072783
C 2.5008142653 0.5757862876 0.3171015691
O 1.8404139403 1.7457046227 0.152979418
H -2.2246452329 -1.6283088056 0.1678693342
H -2.6343118056 -0.6323687587 -1.2377734066
H -2.5085385864 0.1165278599 0.356277014
H -0.1954679166 -1.1988386261 -1.1494471682
H 0.3009405214 1.2572103264 -1.128091532
H -0.0741559478 0.6490904698 1.2570584255
H -0.1253073358 -1.1085104655 1.4025972168
H 2.0294248482 -1.2863229497 0.6879697215
H 2.5053191503 2.4143547568 -0.0160139744
