12
0
C -1.3476068436 -0.9658581838 -0.1945364631
C -0.25506562 -0.0010099681 -0.0220713179
C -0.1129810847 1.4850561077 0.0189638376
O 1.3031719713 1.3290252169 0.2226619885
C 1.0952612359 -0.0829748151 0.1749793097
C 1.9482375746 -1.166871355 0.2924561971
H -0.9611906678 -1.9812866366 -0.1226617573
H -1.8282352808 -0.8286212661 -1.1671736827
H -2.1183655959 -0.8114380144 0.5651963598
H -0.5983995967 1.9807872773 0.863302071
H -0.3415819704 2.0089143865 -0.912413782
H 2.979648878 -0.8142787493 0.452622239
