13
0
C 1.3521941113 0.2512374111 -0.7164042114
C -0.0272103381 -0.3411034307 2.2589082839
C -0.1136246998 0.6463360871 -0.5429218846
C -0.9581743692 -0.4546767504 0.0147047202
N -1.9237687651 -0.9774064301 -0.5758438606
O -0.5804934378 -1.0014145178 1.2890934726
H 1.8368027426 0.0379196134 0.2376599106
H 1.9010432538 1.0630331859 -1.1932043963
H 1.4427794936 -0.6355868525 -1.3450027456
H 0.1099670479 0.7143104816 1.9142735123
H -0.1946843149 1.5369307541 0.0847396816
H -0.5651023717 0.8935134968 -1.5020467123
H -2.3341733526 -1.7284930482 -0.0237197706
