14
0
C -1.9313960435 -0.3296531046 0.4928388571
C -0.5197554509 0.0645426793 0.3071204552
O -0.1561139426 1.0580845336 -0.3592044863
C 1.3166005595 0.9436878868 -0.6189790229
C 1.686398654 0.0946728238 0.5786776608
O 0.4377490905 -0.674110794 0.7824603575
H -2.0874486452 -1.3140611798 0.0485165003
H -2.5829324715 0.3959026498 0.0141769655
H -2.1608951998 -0.4011214169 1.5561709758
H -0.2892752554 -1.292852713 -2.3853828766
H 0.2532442855 -0.7974841989 -2.2205292136
H 1.6840907729 1.9672700725 -0.5537127936
H 1.8764499108 0.5917276812 1.5476156798
H 2.4752727359 -0.6292549197 0.3859259409
