12
0
C -1.7495289782 -0.189201893 0.183793368
C -0.2712890303 -0.2208881338 0.0302005083
C 0.6227034995 0.9804292672 -0.0530059461
N 1.9486500394 0.4193739961 -0.2030287305
C 1.755817788 -0.8395885597 -0.1934913727
N 0.4219572018 -1.2970436526 -0.0531467694
H -2.0330236622 0.3757793683 1.0745852714
H -2.1429487069 -1.2007196612 0.2593848546
H -2.2103200757 0.3091790054 -0.6724002707
H 0.3752142012 1.6266734651 -0.9007799829
H 0.5652543363 1.600984613 0.8466909205
H 2.5552973871 -1.5649888145 -0.2888408504
