13
0
C -1.8410792246 -0.406138916 -1.3935760697
C 0.7926537958 0.3427249868 0.885853079
O 0.9204571762 0.8136065922 2.1507001385
C -0.3920727905 0.358133988 0.2621906269
O -0.5291752218 -0.0249278179 -1.0223071276
C 2.0182790307 -0.1707447141 0.2759931604
O 3.0623574748 -0.1526704092 0.8925122849
H -2.5587378082 0.3850531903 -1.1552518388
H -2.1381647343 -1.3301628352 -0.8895824722
H -1.8284124286 -0.5674402141 -2.4689983483
H 1.8535240936 0.6900746991 2.3791599996
H -1.2828934823 0.7222987359 0.7695666934
H 1.947079119 -0.5747132859 -0.7440401261
