13
0
O -1.1574051529 -0.5327941226 1.4842873662
C -1.4464686679 -0.2373071777 0.1400604661
C -0.9177026147 1.1180476576 -0.2355282238
N -0.1061774475 1.2724931837 -1.1933283673
C 2.1558052297 -0.9353894786 -0.0377419575
O 1.6492723408 -1.1275257695 1.0361819947
H -0.2096909401 -0.7196177733 1.5363072604
H -2.5357385274 -0.2374892102 0.0385266602
H -1.0418043866 -0.9830628331 -0.5536181576
H -1.260061611 1.9423871141 0.401143649
H 1.6226040344 -0.4023154099 -0.8437487222
H 0.1539755564 2.2510321851 -1.2997066744
H 3.1829871868 -1.2853173658 -0.2460272938
