13
0
C 1.147341727 -0.6763808205 0.0019168643
C 0.5783563752 0.5303899341 0.7645959864
C -0.6611762634 0.8755721297 -0.0601505558
C -1.0932702299 -0.503550309 -0.5839575812
C 0.0699569998 -1.4088540857 -0.6959748778
H 1.6715220813 -0.325397858 -0.9121475289
H 1.8756862315 -1.3009052307 0.5201076189
H 1.2845503728 1.3557528802 0.8602498737
H -0.3949664368 1.5228072282 -0.9011499241
H -1.4384121641 1.3854902886 0.509915885
H -1.6122975804 -1.0632262972 0.2225993713
H -1.7825854185 -0.5282950178 -1.4286240222
H 0.2932453055 0.2258481581 1.7760848902
