15
0
C -0.1417829669 -1.578079657 -0.5126365384
C -0.2617544326 -0.1464135087 -0.0414976012
C 0.2314373676 0.9386735784 -0.9042767342
C 1.0105781787 0.608627804 0.4250143801
C 2.277702116 0.1669469944 -0.0087289088
C -1.4193204364 0.1484804347 0.7741870404
C -2.3804618469 0.3763799399 1.4514745024
H -0.9542872943 -1.811890324 -1.2022403517
H 0.8140531383 -1.7211666904 -1.0133087959
H -0.2003989133 -2.2608232363 0.3353956237
H 0.8283699567 1.3341394322 1.2149772723
H 0.717853433 0.6647703776 -1.8292488819
H -0.2506768289 1.9056645618 -0.8796098808
H 3.0367785145 0.8173671988 0.4623409051
H -3.2340659855 0.5771820945 2.0545739691
