11
0
C -1.1135791841 -0.4505174893 0.4208163456
C 0.0009894639 0.3492943676 -0.1957645173
C 1.2844034642 -0.0232353068 -0.2788928381
O 1.8197945132 -1.1664943972 0.1663216197
C -0.3402838835 1.6245853654 -0.7437484537
N -0.6461653583 2.645570831 -1.1760715153
H -1.5675488611 0.0908616984 1.2522094856
H -1.8958257874 -0.6525419992 -0.3124063025
H -0.772501864 -1.413127288 0.8062634996
H 1.1470411109 -1.7186830719 0.5753089835
H 2.0264203862 0.61459929 -0.7423833071
