12
0
C -1.1704788365 -0.8634155861 0.2564358649
C -0.0948665752 0.1261197304 -0.1467414085
C -0.2164648445 2.3984316996 0.6776983767
O -0.0087829594 1.1502839803 0.9017789346
C 1.218572005 -0.4897448578 -0.2968865584
C 2.2885195402 -1.0075432101 -0.4273070634
H -0.9181238377 -1.3221161593 1.211794471
H -1.2526822792 -1.6465848359 -0.4970855647
H -2.1304517278 -0.3546842172 0.3447098479
H -0.364699739 0.650932169 -1.0695428608
H -0.4382678737 2.5094274575 -0.4209507824
H 3.2447871278 -1.4628601705 -0.5373422568
