17
0
C 2.2839175784 -0.1906804374 0.7353197925
O 1.5811966846 -1.4016734148 0.3993176544
C 1.585074733 -1.752878175 -0.8410139208
C -1.0752410572 0.7278521635 -1.1710658711
C -1.8939325397 -0.1971212293 -0.3069461387
C -1.6079292816 1.20494977 0.1302654283
O -0.6743116812 1.425972065 1.1489927363
H 2.8290620875 0.1501009974 -0.1438781388
H 2.9602514929 -0.4269485741 1.5551508976
H 1.5397757985 0.5410962844 1.0469975145
H -0.0112818932 0.5365119612 -1.229919224
H 0.9751184021 -2.6859192152 -0.8329309982
H -1.516062411 1.117386604 -2.0786527713
H -2.899885073 -0.450968187 -0.6145782035
H -1.3575001104 -0.9834934132 0.2090237576
H -2.4242472986 1.921593751 0.1085247154
H -1.0800184313 1.1824460493 1.9835347697
