15
0
O 0.5408128214 -2.2651541764 -1.0163930142
C 0.4057660581 -1.0654405095 -0.4018709502
C -0.9652307793 -0.8405129327 0.1599199305
C -1.3000927673 0.64714238 0.2466238118
C -0.1390075234 1.4518043678 0.764640991
C 1.1084599463 1.0592588663 0.5115784262
C 1.3858620118 -0.1739908532 -0.2236139557
H -1.6963413194 -1.3726882935 -0.4504416573
H -0.992555566 -1.2984081762 1.1567794276
H -1.5649089598 1.0190773472 -0.7525261004
H -2.1845598381 0.7893585127 0.8699357157
H 1.452721439 -2.378837471 -1.2976067768
H -0.3326586786 2.3775900652 1.2931500688
H 1.9504500921 1.6573729638 0.8409926518
H 2.3909150634 -0.3698880903 -0.5825115684
