12
0
N -1.8511269289 0.0869145069 -0.4129280819
C -0.5032979105 0.0955277348 -0.1150964437
C 0.3335944686 1.1224696137 0.0549058141
N 1.6437216222 0.5764870198 0.2509019701
C 1.7528314261 -0.7314367668 0.2313813612
C 0.322155216 -1.1597148048 -0.0286131384
H -2.3517319202 0.9400298151 -0.2302564927
H -2.35283705 -0.7273868983 -0.1022368414
H 0.1638854297 2.1880490789 0.0516302579
H 2.4400794507 1.1739085886 0.4039570133
H 0.2861784465 -1.7403543226 -0.9558759028
H -0.0037072501 -1.8370515655 0.7676404846
