11
0
C 0.1067990338 0.8385130911 0.096186024
C 1.0778139184 -0.1436839538 0.7308356897
C -0.1320805965 0.6302600925 -1.3840196122
N -0.9553771351 -0.3434860966 -1.3447124896
C -0.9112749509 -0.3298673282 0.1588000528
C 0.2009818663 -1.1453990804 0.777088059
H -0.0551552449 1.8173738734 0.5412225207
H 2.1246959995 -0.0507551881 0.9893090899
H 0.2596487845 1.1051561727 -2.2807668652
H -1.8838462331 -0.2575509478 0.6388548689
H 0.2628275579 -2.186050635 1.0658056618
