13
0
C -1.5337687443 0.0692324682 -0.11296456
C -0.1717807263 0.7094108172 -0.1634702941
C 0.8873474493 0.3267388497 0.8398871084
C 1.0231408232 -0.0699369923 -0.6007947148
O 0.8167526325 -1.3995679958 -0.9712969357
H -2.1667891464 0.5666980973 0.6246453837
H -1.45954508 -0.9854063703 0.151248348
H -2.0303251506 0.1313349843 -1.0834103188
H 1.55306511 -1.9212425327 -0.6479325438
H -0.1711578105 1.7500671191 -0.4697001631
H 1.5458339823 1.0873709997 1.238847022
H 0.628335711 -0.4646013388 1.5335024844
H 1.7654999499 0.4519438942 -1.1992428161
