17
0
C 3.0012351249 -0.3338168028 -0.0156718149
C 1.5216589187 -0.1628486309 -0.1700952837
C 0.7526300068 0.2726869217 0.8188412186
O -0.5986474772 0.4444440541 0.830535077
C -1.350066546 -0.0618326034 -0.2490126606
C -2.7954639179 -0.0707970453 0.1951487768
O -1.1539451856 0.6792802134 -1.4188189158
H 3.5489008656 0.2863428156 -0.7299499206
H 3.3012160532 -1.3695635264 -0.1952496108
H 3.3309173376 -0.0604943798 0.9884096203
H 1.0908523919 -0.3855569737 -1.1391693245
H -1.4756630455 1.5724626549 -1.2679872304
H 1.166092601 0.5519075947 1.7824096104
H -0.9972715551 -1.0706376082 -0.4881339491
H -3.1093217707 0.9412334887 0.4618783867
H -3.4268647968 -0.4377917978 -0.6133137765
H -2.922787005 -0.7089083747 1.069106797
