13
0
N -2.1011326735 -0.0654691954 -0.2303913849
C -0.7457058218 -0.2022461524 0.1038711592
O -0.014936162 0.5496296771 -0.8080006314
C -0.2099224232 -1.3907796861 0.7403193763
O -0.3290097548 -0.1389038498 1.4513545715
C 1.2696890355 0.8667045149 -0.530989335
N 1.9597370278 1.4167307789 -1.4219865159
H -2.3501554109 0.9072088662 -0.3459730805
H -2.7002514733 -0.5034385487 0.4524915973
H 0.8080181573 -1.7039154929 0.5225095796
H -0.8765111694 -2.1786690029 1.0785232703
H 1.5782420423 0.62785104 0.4878342802
H 2.8871356261 1.6163570511 -1.0634608868
