10
0
O 0.0496198802 2.2606486465 -0.7147709511
C -0.165867553 1.567573175 0.234394213
C -0.5785386112 -0.9469028985 0.2037757284
C 0.2514552822 -1.3039118961 -0.7725436006
O 1.1993918779 -0.3176344437 -0.6312071142
C 0.3928946596 0.1887120305 0.45817783
H -1.5062331777 -1.2865578951 0.6268232302
H -0.8382559138 1.8965243514 1.0561330443
H 0.355289609 -2.0692144877 -1.5289165143
H 0.9483359466 0.1480384178 1.3999341344
