12
0
N -0.4517630845 2.5313550235 1.3435693818
C -0.1323521464 1.6891404334 0.6313143897
C 0.2194998796 0.6291987822 -0.2766741233
C 1.2860100595 0.7580245449 -1.0563673926
C -0.5659969402 -1.4233593719 0.9751512176
C -0.68058999 -0.5734133955 -0.2724456998
O 0.2312058216 -1.2421391093 1.8484955265
H 1.5616117634 -0.0259811643 -1.7508349704
H 1.9072093955 1.6428779673 -1.0213216098
H -1.2868944151 -2.2646501826 1.0243169809
H -0.4561831971 -1.2191463189 -1.1269649826
H -1.7301931464 -0.2801212089 -0.3798347179
