13
0
O 1.8981740076 1.4447586906 -0.6323657578
C 1.646939514 0.1730787359 -0.0623710051
C 0.2003759108 -0.1188078472 0.1114146324
C -0.5995458897 -0.1800430703 1.2035192132
C -1.9178156321 -0.4582178644 0.7255184576
C -1.8098035426 -0.5411720627 -0.6181128992
O -0.5333438035 -0.3396088199 -1.0078772932
H 1.4068720882 2.0993421121 -0.131401613
H 2.1335581433 0.070078964 0.9143239473
H 2.0984115385 -0.5512711666 -0.741936564
H -0.2878787398 -0.0469986894 2.2272008292
H -2.8190312925 -0.5784518983 1.3040792386
H -2.5214233022 -0.7319120837 -1.4041901859
