10
0
O 1.6790813543 -0.268965752 0.0039064074
C 0.3927074489 0.1714874934 -0.3526245598
C -0.6008229177 -0.7540915877 0.3170698985
N -1.5699543924 -1.2105907292 -0.3395935227
N 0.0015086004 2.6429633932 0.4418139998
C 0.1575127029 1.5610829253 0.095107797
H 2.337096871 0.3244125736 -0.3652319401
H -0.3869087129 -0.9663004212 1.369251261
H -2.1574348154 -1.8096515913 0.2362779858
H 0.2138908609 0.129428696 -1.4319793269
