14
0
C 2.4000259085 0.1600464982 0.8877000135
N 1.0258639603 0.5866201587 0.7066136114
C 0.3313142987 0.123469904 -0.1975754595
O 0.6461464086 -0.8783348232 -1.1864950956
C -0.5903749847 -0.9140159584 -1.6865491279
C -2.2467050873 -0.0939250008 0.161187461
C -1.0700537811 0.2004912221 -0.7487404491
H 3.0465539534 1.0324788009 0.7890819068
H 2.5135071321 -0.2178246326 1.9038897368
H 2.7185581075 -0.6068235162 0.1781909365
H -3.1594141273 -0.1768888178 -0.4294997815
H -2.1039218124 -1.0311955387 0.7005059852
H -2.3774331931 0.7038981258 0.8920391477
H -1.2299657832 1.1159215778 -1.3265488853
