10
0
C -0.7950523686 -1.9599386879 -0.2061102636
C -0.0358420303 1.5332017417 0.259234012
N 1.367308072 2.0978852056 0.0768990997
C 1.2167838577 0.8689604295 -0.0287213928
O 0.3524581851 -2.1834640826 -0.4643049242
H -1.1629898286 -1.9213280231 0.8362783123
H -1.5473508368 -1.7803659607 -0.9966702195
H -0.7467635491 1.7446628813 -0.5337719752
H -0.4354763164 1.5504904381 1.2685738998
H 1.7883658151 -0.0273249419 -0.2254085486
