16
0
C 0.0166160968 1.9250436721 -0.8102618888
C 0.1241517653 0.8262816434 0.2132978971
C -1.2788069373 -1.997872286 -0.0777323332
C 0.5401019618 -0.557425155 -0.1845429122
C 1.4707240556 0.2786592849 0.6185161916
O -0.0225489065 -1.6542405413 0.4536341321
H 0.1788672285 2.9062769714 -0.3584449754
H -0.9670882016 1.9308251259 -1.2853331688
H 0.7642538984 1.7977857891 -1.5968530359
H -0.6062790372 0.8575490311 1.0151171104
H -2.0024557773 -1.1832272724 0.0467710762
H -1.6319651314 -2.8755128189 0.4620245677
H -1.2081811045 -2.2414885051 -1.1455471952
H 0.7754220033 -0.7256378897 -1.2359440927
H 2.3550966836 0.6729258341 0.1335945873
H 1.6040664026 -0.0096658835 1.6526250398
