14
0
C -2.4309246085 0.5894561025 -0.5122694593
C -1.6858119641 -0.3009233215 0.1222714819
C -0.3741891664 -0.8296694862 -0.3826636181
C 0.7500565757 -0.5960549631 0.5976890293
C 1.8046214315 0.1185945816 0.338016737
C 2.8539997468 0.8363168791 0.0639687496
H -2.1233670326 1.0061767774 -1.4657964983
H 2.8687595178 1.9021595992 0.261489583
H -3.3718504419 0.9369722914 -0.103510308
H -2.0235073282 -0.6914574184 1.0800577041
H -0.1285757961 -0.370380939 -1.341310801
H -0.4675948903 -1.9084484012 -0.5534385696
H 0.6610325899 -1.0494766852 1.5818870755
H 3.7432303664 0.3897539835 -0.365850106
