17
0
C 2.1099562653 0.7900254454 -0.5421529791
O 0.704587389 0.7976698752 -0.3985564939
C 0.1118693881 -0.3560089569 -0.886671567
C 0.2389189422 -1.6708069074 -0.0841224717
O -1.0720711944 -1.7962631126 -0.0372441515
C -1.3958874775 -0.4948159752 -0.6364119172
C -2.0323927718 0.4394926148 0.3521120387
H 2.5571554565 -0.064367742 -0.0260999517
H 2.3937118 0.7545624189 -1.6014451434
H 2.4803788284 1.7143677034 -0.1033896367
H 0.3844428688 -0.5488985235 -1.9367833495
H 1.2765492422 -0.3078442392 2.8295354743
H 1.1596657655 -0.8366970484 2.3149776276
H -2.0217219264 -0.6445730921 -1.518671298
H -2.1589371609 1.419185982 -0.1110802705
H -3.0124677039 0.0663672049 0.6516877486
H -1.406083711 0.5583303527 1.235411341
