19
0
C -1.7790949819 -1.0804336186 2.2749470054
O -0.4647650571 -0.9523402444 1.7910505283
C 0.2770450661 0.7581934091 -1.2906571025
C -0.2384386855 1.7658463989 -0.2980442046
C 1.7560122535 0.3493270674 -1.2383145911
C 1.2183423733 -1.0793203335 -1.1385686288
O -0.1330094357 -0.5988899393 -0.9797632089
H -2.3955076738 -0.2028691282 2.0419548718
H -1.7258167664 -1.1782046904 3.3599814712
H -2.2812434487 -1.9701158017 1.8764794338
H -0.0563816287 1.0094967445 -2.3037318733
H 0.0836787923 1.5131728038 0.7136828095
H -1.3298946744 1.7941384245 -0.3163763107
H 0.1316708075 2.7614959079 -0.5527224786
H 2.258823149 0.6902321593 -0.3339793947
H 2.3619901325 0.588372468 -2.1096060136
H 1.3156510786 -1.6722236394 -2.0518808434
H 1.5371195428 -1.6724577902 -0.2798793242
H -0.4959088433 -0.8633721976 0.8262918544
