12
0
O -2.0685321897 -0.1189529833 -0.5455904113
C -1.1761938425 -0.5390556953 0.460126005
C 0.2657540296 -0.1801291447 0.1599768715
C 0.6446654807 1.1936805002 0.1651190881
C 0.8916355642 2.3681113339 0.176393554
C 1.1344324435 -1.1153319876 -0.1617668232
N 1.9386656155 -2.0058037328 -0.329745858
H -1.9991015125 0.8349313952 -0.6331733698
H -1.4473399763 -0.1050324129 1.4296507033
H -1.2782026689 -1.6214874886 0.5334587689
H 2.0876748769 -2.3223076263 -1.2836183532
H 1.1307031798 3.4050418422 0.1921328247
