15
0
C -1.6349714917 0.9403611239 -0.8537712227
C -0.2207313132 0.6053746777 -0.4555133378
O -0.2772198815 0.926151562 1.2070401755
C -0.0305947093 -0.8614523153 -0.4570524354
O 1.3793574786 -1.3146633744 -0.4901587964
C 2.1292649014 -1.0803609115 0.5403575641
O 1.814572991 -0.5042654082 1.56650355
H -2.4241917237 0.3530704483 -0.3562810497
H -1.7162786049 0.7718100923 -1.9308866377
H -1.8554911086 1.9982743144 -0.6970252893
H -0.0195436423 1.8528862201 1.2309314469
H 0.5266460835 0.4070567713 1.5153602032
H -0.4162719126 -1.2541752015 -1.3962588903
H -0.4974336113 -1.4147043283 0.3712063413
H 3.1364645445 -1.489685671 0.4008953783
