14
0
C 2.0490878809 0.1841057755 -0.3916853123
C 0.6932466609 0.7437957658 -0.0442635002
C 0.3887490734 1.969765226 -0.3414218048
C -0.3147669964 -0.1081074977 0.6540182143
C -1.792668937 0.0960644596 0.4832845943
C -1.1275341982 -1.0915451267 -0.1413563489
H 2.5629321481 -0.1300845998 0.5188857169
H 2.6714872589 0.9170329011 -0.9043783503
H 1.9295935871 -0.687203262 -1.0382417844
H 0.0126993969 -0.4385647334 1.6342374774
H -2.417349015 -0.0639664803 1.3513600419
H -2.129288757 0.8861404017 -0.1730642051
H -1.2979717774 -2.0682066018 0.2921383929
H -1.0006173251 -1.0851132281 -1.2163321318
