11
0
N 1.9325343412 0.136131485 -1.2051152759
C 0.7935426777 0.1139636458 -0.6650832693
C 0.4114973338 0.760626905 0.6029910406
N -0.6084096554 0.410960554 1.2598225508
C -1.4068524372 -0.6294214469 0.6776845095
N -1.2407772921 -0.9634196893 -0.7377659101
N -0.234751685 -0.6182610817 -1.3601652635
H 2.5869872316 0.6796939416 -0.6431363358
H -1.2508889762 -1.5613837754 1.2320090411
H 1.0450132353 1.5625342664 0.9853495927
H -2.4620307738 -0.3776328042 0.8019043198
