13
0
C 1.1444108275 -0.4881388195 -0.2117996039
C 1.0000852219 0.5795359789 0.8446420798
C -0.1390912823 1.237989877 0.6800493833
C -0.1823812044 -0.3686367666 -0.945937067
C -1.4421745238 -0.5639729516 -0.2023068632
N -0.9250364061 0.7935365032 -0.4274541441
H 1.3142515483 -1.4826543219 0.2104858091
H 1.9792455751 -0.2795375576 -0.8868126174
H 1.731127257 0.7736825564 1.6169300368
H -0.5216924777 2.0569174083 1.2742862426
H -0.1940939663 -0.4857681941 -2.0226870029
H -1.3846169795 -0.9484076061 0.8108571617
H -2.3490265896 -0.8049251064 -0.7439144148
