11
0
O 2.5434754923 1.0375805111 -0.3050629901
C 1.5749519888 0.3795887826 -0.5606086799
C -0.4831302006 -0.1823666796 0.6922780809
C 0.1511170246 0.7917282675 -0.2586917551
C -1.4306962936 -1.0467030582 0.3651807871
H 1.6743240903 -0.6172164443 -1.0403985427
H -0.099023911 -0.1694425758 1.7089176204
H 0.1666838798 1.8024068256 0.1525731619
H -0.4015313433 0.7979693836 -1.2034888073
H -1.8374642654 -1.7393079887 1.091639621
H -1.841554462 -1.0881940239 -0.6383324962
