18
0
C -1.2701934658 0.9754121508 -0.5390805266
C -1.5108772798 -0.503847198 -0.8127665925
C -0.5484456208 -1.3606378238 1.3419363989
O 0.3701591296 -1.141952515 2.0833346575
C -0.4635767588 -1.4068230123 -0.1575459723
C 2.5955984706 1.1920599899 0.2121014696
H -2.0311223096 1.5931390785 -1.0181825177
H -1.2897044309 1.1948914529 0.5314224948
H -0.2948217387 1.2895454984 -0.9165857658
H -2.5069291826 -0.7916793384 -0.4599882361
H -1.507593639 -0.6872935989 -1.8895942106
H -1.564486671 -1.5490303274 1.7559745207
H 2.1401126841 0.490525001 0.9101354648
H -0.6420124104 -2.4478378489 -0.4512189737
H 0.5498013402 -1.1381635512 -0.4614503353
H 2.5712177092 0.7776327262 -0.7958948686
H 2.046993212 2.1331045058 0.2299048378
H 3.6306809618 1.3732728103 0.498280155
