13
0
N -0.9256607753 -0.8396975184 -0.879833483
C -0.9059664674 0.3908217572 -1.4470625971
O -1.6282207798 0.7007920731 -2.3753998623
C 0.0775534498 1.3777670071 -0.9027693296
C 1.1868365602 1.0816791587 -0.2423985145
O 0.2271173153 -1.5247654142 1.8398657402
H -0.4773291925 -1.0430236133 0.0005398777
H -1.618503344 -1.4805372557 -1.2232981911
H 0.1544268038 -0.8652963211 2.5315600319
H -0.1630131046 2.4022409017 -1.1633784811
H 1.4613438742 0.060548764 -0.0037712099
H 1.8729339769 1.859394705 0.0711617182
H 0.8403646836 -2.1868792443 2.1611833006
