11
0
N 0.5668199686 0.6353507925 0.9991125197
C 1.3546503301 1.6346824488 1.279100179
C 0.1117271485 0.1897867345 -0.2953075378
C -0.1005773585 -1.2558572003 -0.6015945271
O -1.0658498872 -1.4950253652 0.4326645148
C -1.2407497507 -0.4109961145 -0.4909000184
H 0.2075219786 0.0718881227 1.7603878026
H 1.6247611937 2.1015066855 0.3083788051
H 0.4935495466 0.8107648207 -1.1005313699
H 0.2343817101 -1.9996979211 -1.3035707003
H -2.13074688 -0.2467360037 -1.0732906677
