16
0
C 2.3781113034 -0.0898584727 0.4269552561
O 1.9603597568 -1.4245655533 0.0838540392
C 1.3693820817 -1.7130682435 -1.0215937583
C -1.0672945648 0.9474961041 -0.2892000456
C -2.448733985 0.5488149839 0.1322353717
C -1.2999258022 -0.3819702935 0.3691259716
H 1.8408372323 0.2042301165 1.3269528499
H 2.1479095107 0.5893028799 -0.3962981479
H 3.448417735 -0.1181507126 0.6246650873
H 1.2860983614 -0.7573716768 -1.6094624277
H -0.5685784196 1.7222869003 0.2792323319
H -0.8451083617 0.9584454915 -1.3485726559
H -3.1603670717 0.2900713508 -0.6402566713
H -2.8813880322 1.0490424476 0.9885000491
H -0.9562696962 -0.5147099438 1.3869641531
H -1.231134048 -1.2744493785 -0.2397254035
