13
0
C 1.5829434317 -0.5517869689 -0.2312658565
C 0.3185731076 0.1274560041 -0.6658207756
C -0.5291047241 0.7565711255 0.4293474015
N -0.0029825253 0.134344249 -1.8887125589
C -1.4793396012 -0.2616156591 1.0147170605
O -2.6700806756 -0.1299945989 1.033167756
H 2.0545773255 -1.0393375551 -1.0810715342
H 2.274124547 0.1786762965 0.1974787834
H 1.3796547537 -1.2933340593 0.5463291985
H 0.1166875234 1.1137172447 1.2382073261
H -1.1132220658 1.592588521 0.0452122296
H -0.8839702579 0.6248286993 -2.0377942773
H -1.0073408392 -1.1740292986 1.434515247
