12
0
O -0.5205046988 0.4318892941 -1.4624258495
C 0.0212367951 0.6906528945 -0.2085119032
C -0.498815289 -0.2284306292 0.8687351035
C -1.3013592456 -1.2521940868 0.6386040451
O 2.1207425644 0.3538031549 -1.2729077891
C 1.533519012 0.5986652629 -0.2547245131
H 0.2241202152 0.2706323298 -2.0578620312
H -0.2052885552 1.7274560642 0.0960304534
H -0.1767989174 0.0069959459 1.8799866239
H -1.6491627683 -1.8807542371 1.448461863
H -1.6369486206 -1.4787062088 -0.3655535233
H 2.0694975083 0.7661012155 0.6976375206
