12
0
N -0.8465274264 -1.3949112839 0.3949227142
C -0.9670797452 -0.0798356879 0.6743498096
O -2.0022794355 0.4527139412 1.0062296262
C 0.3087411903 0.7462594284 0.6032775895
O 1.4164040318 0.0623594115 -0.0185064132
C 1.5872797965 0.0224793432 -1.3179567105
O 0.6107930986 0.6923696589 -1.9136583511
H 0.0348008384 -1.8046332373 0.1465049598
H -1.6664630239 -1.9711005214 0.455170485
H 0.0818916548 1.6833887663 0.1025390859
H 0.6347129206 0.9505457706 1.6218813017
H 0.7722941003 0.6389294104 -2.859188097
