12
0
C 2.4231381181 0.3214978237 0.1945220093
C 1.1264197892 0.2906684747 0.0694970007
C -0.1494306418 0.2442172056 -0.054008555
C -1.4835814812 0.8183586245 0.1969198299
C -1.3363743043 -0.4983660674 -0.5171574904
O -1.7577788379 -1.6329289842 0.1691334492
H 2.9097448774 -0.1041807651 1.0641629103
H 3.0472322546 0.7779920973 -0.5646021791
H -1.1020630902 -2.3224728116 0.0490824491
H -1.7946914798 1.6850226659 -0.3747229498
H -1.854187613 0.7690914598 1.2144190901
H -1.5297895912 -0.509073723 -1.5879595643
