14
0
O -0.7811670655 1.1195279533 0.2742534704
C 0.514829651 1.0033540435 0.6472901286
C 1.2981756347 -0.1862229516 0.1539269823
C 0.4360768711 -1.3701894322 -0.1571951919
C -0.8200093863 -1.1930922969 -0.5266894616
C -1.3895544527 0.185327136 -0.6142752927
N 1.0569547681 1.8609956689 1.3946110508
H 2.0551325948 -0.4069778319 0.9038539141
H 1.8419550402 0.1196790441 -0.7479820245
H 0.8709685732 -2.3605916389 -0.091681739
H -1.4673570258 -2.0221797765 -0.7865522445
H -2.4480831243 0.1895600886 -0.3518452032
H -1.3050930241 0.5723670552 -1.637571257
H 0.3975949455 2.6018359383 1.6225138683
