10
0
N 2.0679188748 -0.0562819963 -0.2092420334
C 0.6091588947 -0.0691327891 0.0002896078
N 1.2329392915 -0.7936108614 0.8433363602
N -1.8864646904 -0.4770804323 0.8379182982
C -1.6191041501 0.2745966881 -0.1479866925
N -0.3339961119 0.512301455 -0.6185780194
H 2.623730936 0.7134257672 0.1342712007
H 2.4839560842 -0.6368457903 -0.9228550146
H -2.8874506081 -0.5047236385 1.0042237578
H -2.3727895208 0.8122375977 -0.7284874646
