13
0
C -2.1344552413 0.1764710075 -0.4253094349
C -0.7521467856 0.018180424 0.1095975214
O 2.0315432612 -1.374632058 2.0188792692
C 2.0233256633 -0.821058703 0.9721165646
O 2.4149939192 -1.0401240801 -0.2643668478
C 1.6921078357 0.2725860612 0.0840490599
C 0.3492866 0.4605881158 -0.4867540077
H -2.6056200315 -0.8008494723 -0.5551025347
H -2.7564366151 0.7361153248 0.2774473344
H -2.1401563959 0.6953684699 -1.383942371
H -0.6563458818 -0.4961792681 1.0636341093
H 2.3865031611 1.103957078 0.0147033767
H 0.2896425106 0.9962161004 -1.4300330397
