15
0
C -2.4941595122 -0.3135513456 0.020809694
C -0.9867544464 -0.4034895654 -0.0043466928
O -0.4583106178 0.8110011961 0.4903182595
C 0.9249395505 0.8085032187 0.6147739414
N 1.5915232732 0.7355181767 -0.671944106
C 2.6108954324 0.0049762117 -0.7540663424
H -2.8542440819 -0.1554184238 1.0382541
H -2.8343429555 0.5178951309 -0.597535971
H -2.9341678398 -1.2346099746 -0.3653315626
H -0.6356584635 -1.2381767011 0.6214278231
H -0.6265544011 -0.5796535475 -1.024821532
H 1.1920145292 1.7636823462 1.0715025967
H 2.9915109806 -0.5937812726 0.0845450592
H 1.2507117864 -0.0134803648 1.2800287505
H 3.1567747659 -0.0479550851 -1.6943040179
