13
0
C 1.7896899369 0.6076970399 0.1633513929
O 0.8603347471 -0.4006236886 0.5229493069
C -0.3074067881 -0.3712882807 -0.1925095187
O -0.1028649259 -0.4978869216 -1.553274785
C -1.4917267439 -0.9154512579 0.4692559531
N -1.3608453418 0.540339055 0.1797571942
H 2.6353435916 0.4995982995 0.8390145007
H 1.3582085816 1.6077470089 0.2845292689
H 2.124266 0.4838070094 -0.867880562
H -1.3885311188 -1.2373551657 1.4983942842
H -2.2444575717 -1.4255510436 -0.1182049558
H -1.1182806336 1.0456447534 1.0234409892
H -0.6716487335 0.147788192 -1.9800120688
