9
0
O 0.4586276644 1.5356737191 -0.1227237651
C 1.6213446948 0.8543641304 -0.1194553201
O 1.8033538785 -0.2481450546 0.2884657709
C -1.4714670389 -1.279839396 -0.3999045973
C -0.9845722465 -0.1610580137 0.0398656238
N -0.6283723271 0.8996336732 0.5509661865
H 2.3795380452 1.511558909 -0.5668167035
H -2.2696163946 -1.2787463841 -1.1293246395
H -1.0654012759 -2.2168485831 -0.0438575558
