15
0
C -2.8261349268 -0.2831119413 -0.196711891
C -1.6738856523 -0.933569889 -0.2166569746
C 1.7282811161 0.3922970575 0.7234532581
C 2.4801223489 -0.3157078411 -0.3699092549
C 0.7791802358 1.2613020899 0.5001046156
N -0.0458247856 2.1339197321 0.2808596178
H -3.4064233002 -0.1844378365 0.7138058481
H -0.9984117307 1.7802286157 0.1929944968
H -3.2414028605 0.1658145579 -1.0921411211
H -1.2573235904 -1.3857602349 0.6758267451
H -1.0946231108 -1.0361647561 -1.1274766425
H 1.9645588021 0.1796738042 1.7596532862
H 2.3359534384 -1.3972457654 -0.3106828302
H 2.1462136591 0.015467034 -1.3531480104
H 3.5524713571 -0.1216176272 -0.2963711431
