10
0
C -2.0370298532 0.0993619993 0.245450949
O -0.932203491 0.0113471773 1.1673510443
C 0.3037840688 -0.0393284131 0.7540437743
O 0.3379531667 0.0046878888 -0.5702723788
C 3.3754180178 -0.1580860201 -0.2670186781
O 4.330750687 -0.2140338437 0.3167674542
H -2.9289939665 0.1132023246 0.8654753177
H -1.970971126 1.0123878514 -0.3444464593
H -2.0498506283 -0.7634776645 -0.4187517452
H 1.2741051245 -0.0367283 -0.8114952781
