14
0
C -2.214317292 -0.0363642457 0.6005864812
C -1.0232685736 -0.1950370105 -0.3128683258
O 0.1535605494 0.0918615313 0.4318901344
C 1.3023722119 -0.0783925018 -0.2863476999
O 1.6820174314 0.9615981723 -1.1573761918
C 2.4444171101 0.7547290428 0.0329910094
H -2.1429379919 -0.7190627621 1.4482144865
H -2.2678418061 0.9831507555 0.9841054043
H -3.1364800538 -0.2506682818 0.0580852748
H -0.9653047455 -1.2193371767 -0.7052503498
H -1.0880167479 0.4883117779 -1.1664479083
H 3.4553003982 0.3876701769 -0.1169794464
H 2.3162345839 1.5171823521 0.7949260184
H 1.4290949261 -1.0773508303 -0.7068258871
