17
0
C -2.2238336226 0.2771399566 0.0637856609
C -0.7643831323 0.2166360993 0.4549562425
C -0.2024450539 -1.2082064028 0.4195020552
C 1.2562453766 -1.4214608641 0.36029844
C 1.9808158916 -0.254969566 -0.1766677485
C 1.3206226571 1.1197241899 -0.0994338574
O -0.0444413564 1.0486106894 -0.4340320217
H -2.823687033 -0.3545705688 0.7214775182
H -2.3513629841 -0.071838744 -0.9632170614
H -2.5974324595 1.2994545363 0.1274576734
H -0.6468277484 0.6122370384 1.476714668
H -0.4812396443 -1.6853450852 -0.5411267009
H -0.6645136306 -1.8521579067 1.1736288414
H 2.0458668495 -0.5785053084 -1.2337309199
H 3.0211823909 -0.2408211601 0.1596549206
H 1.439002158 1.535560071 0.9120058008
H 1.7798523417 1.819474025 -0.7990865114
