13
0
N -2.2218818991 0.7068569512 -0.6034755642
C -1.0515251039 0.3246720514 -0.2862637088
C -0.7673749336 -1.1382165911 0.0389450301
N 0.6098229309 -1.1303046091 0.523096975
C 1.1224489296 0.1123845552 0.2932100818
O 2.4272074958 0.2506608275 0.538656782
C 0.2114807131 1.0209386504 -0.1341646897
H -2.2388301773 1.7075300007 -0.7841795328
H -1.4608935778 -1.5108325089 0.7924165531
H -0.8709267258 -1.7445447324 -0.8641891299
H 1.2099496098 -1.92008145 0.355740088
H 2.6981093582 1.1468158991 0.3256878934
H 0.3804713803 2.076537956 -0.2803007779
