13
0
C 1.8990812003 0.0745142381 -0.0194090743
C 0.4092941013 0.0682706636 0.0116781496
C -0.3872723286 -0.9719626454 -0.2484367208
N -1.7575896139 -0.5040454762 -0.0921308353
C -1.7555280416 1.0008099569 0.3085142591
C -0.4223172614 1.2278008368 0.3396441306
H 2.2940649853 0.3579911383 0.9583650802
H 2.3085633975 -0.8978591395 -0.2923516109
H 2.2558188628 0.8161529469 -0.7370961695
H -0.1752422049 -1.9930023852 -0.52410242
H -2.3100801947 -0.5737891385 -0.9439303401
H -2.2723455689 -0.9935572883 0.6366453996
H 0.002044667 2.1922152927 0.5886701518
