12
0
O 1.3685253979 -1.2654313285 0.325610827
C 0.8932776276 -0.5304567071 -0.7923792453
C 0.6297811992 0.6776929892 0.1479306943
C -0.8675170993 0.9381562738 0.1653742753
N 0.4354437793 -0.4773283648 1.1054603029
C -0.8848117187 -0.5830275104 0.2969724716
O -0.4146596496 -1.0274066916 -0.9618839354
H 1.4837605819 -0.5817850574 -1.7026614619
H 1.4151555413 1.397556937 0.3557397756
H -1.3549502127 1.3587541715 -0.710466705
H -1.1623746298 1.4472083827 1.081788816
H -1.6933628173 -1.1932570943 0.6835941846
