13
0
C 1.8799551991 0.1245559051 0.2696851181
C 0.6734814653 0.6960029118 -0.4070196061
C -1.4867439459 -0.9202029905 0.2420567913
N -1.811117002 -0.0859070664 -0.9570286737
C -0.656194511 0.1904293164 -0.1881781994
O -0.2933076164 1.3639899721 0.4551668445
H 2.5760981667 0.9176062189 0.5479461294
H 1.592399923 -0.4198078106 1.1692673446
H 2.3985423272 -0.5601625897 -0.4044904351
H 0.8457273496 1.2364352623 -1.3351310937
H -2.0786550117 -0.77160319 1.1385420845
H -1.2207613108 -1.9471029996 0.0216316599
H -2.550599033 0.5756660599 -0.7473109644
