16
0
C -1.0727140552 -1.0402782999 -0.6561461204
C -0.0954521263 0.1012646319 -0.9745168382
C -0.4897327868 1.407012812 -0.3011868095
O 0.1953115296 -0.0708558166 2.6754179073
C 1.2825692954 -0.371371778 -0.5996768786
O 1.9134217057 -0.0094424532 0.3608785905
H -0.7739487582 -1.9770049608 -1.1322959303
H -1.1230545343 -1.1987797626 0.4231907445
H -2.0712121045 -0.7858797914 -1.0135042721
H -1.4477224781 1.7529197565 -0.6931523715
H -0.5942348797 1.2804357262 0.7767573485
H 0.2529350295 2.1855209337 -0.4817680262
H 0.6362328517 -0.3640288426 3.4730217886
H 1.7119759226 -1.1415062799 -1.273954408
H -0.0742953818 0.2327832009 -2.0637986727
H 0.8995537704 0.1011469238 2.0364419478
