15
0
N 2.7777348207 0.7148876371 0.0450873097
C -0.5501664177 0.9726909569 0.3111799718
O -0.0061768324 2.0398685823 0.4232785726
N -0.0142588354 -0.2040911234 -0.1133318931
C -0.9001841364 -1.3086320811 0.1597831752
C -2.2291526774 -0.5562408053 0.273357353
O -1.8618389632 0.7807439622 0.6087551052
H 2.1875290878 1.530000903 0.193360612
H 3.3576552864 0.8945360881 -0.7636077746
H 1.0023848487 -0.2648980351 -0.1296703391
H -0.6416254951 -1.8241922174 1.0912117382
H -0.9132919417 -2.0384100425 -0.6503065024
H -2.8847229162 -0.9418586659 1.0518540117
H -2.7656477352 -0.5425021335 -0.6785312007
H 3.3893129075 0.6262759745 0.8455278607
