13
0
O 1.0735963356 -0.4307525864 -1.0460583514
C -0.2304364954 -0.1853308082 -0.8754466401
C -1.4341731641 -0.979437292 -1.2842603312
O -2.2509349888 0.0586993235 -0.6745249188
C -1.0538723675 0.7180210521 -0.3439832321
C 1.6599599418 0.4330645246 1.9609703861
O 2.1133346684 1.0817788142 1.0558333608
H 1.5847630798 0.2168930263 -0.5312779038
H -1.5800798368 -1.939727462 -0.7874521301
H -1.6311926195 -1.0572779583 -2.3540266683
H -1.0450969468 1.6665023577 0.1704328458
H 1.8112930563 0.7357152927 3.0105764645
H 1.0744543372 -0.4844392842 1.7791761185
