14
0
C -2.0406004092 -0.5326287045 -0.1847325622
C -0.9800574937 0.5471922024 -0.2016917278
O -0.1297644861 0.5635862137 0.9626468124
C 0.9808706944 0.6097874612 0.0440456771
C 2.0593536996 -0.4169396786 0.3190840113
C 0.1419692416 0.4537147239 -1.1832491258
H -2.7108174936 -0.3770307473 0.6607647572
H -1.5826520823 -1.5169434645 -0.087778509
H -2.6144795942 -0.5003160429 -1.1109219512
H -1.4430323122 1.5369394597 -0.3627968746
H 1.4177656094 1.622380627 0.003531289
H 2.8503234692 -0.3273381764 -0.4255151635
H 2.4775677137 -0.2520199385 1.312330011
H 1.6485344435 -1.4257449354 0.2801253561
