15
0
C 0.7701297538 1.0226191767 0.1037966454
C 0.9793740725 -0.4881763704 -0.2115877174
C 0.4495516475 -1.2763586852 0.9228214617
O -0.7221138317 -0.9182734998 1.3810663649
C -1.3773887996 0.0852077877 0.857206005
C -0.7213450556 0.7806959941 -0.2712094941
C -0.164393019 -0.2939152596 -1.2506643878
H 1.0021291125 1.3799128495 1.1067176428
H 1.2575151097 1.6402276517 -0.6474636509
H 1.9535019717 -0.8372378476 -0.5458964559
H 0.8965712036 -2.1185378296 1.4226220444
H -2.3304995848 0.2934756046 1.3124532234
H -0.7947021877 -1.1483238904 -1.4958893036
H -1.3172414951 1.6033720737 -0.6593978496
H 0.2182671024 0.1739762446 -2.1551735284
