13
0
C -1.0618214582 -0.7205779427 1.1261885021
C -0.0439596294 -0.8807566166 0.0106161527
N -0.2997324477 0.0566926967 -1.0940101755
C 0.3380632063 1.1319910469 -1.4019040705
C 1.4726374636 1.5672713193 -0.6250112793
O 2.6226882872 1.2163880233 -0.7958914144
H -1.0097361623 0.2796729481 1.5588968863
H -0.8694588035 -1.4457759245 1.9177410939
H -2.0787944286 -0.8828196866 0.7627808028
H -0.0729401119 -1.8921828541 -0.400711794
H -1.0902649041 -0.1938863587 -1.6756179742
H 0.9704858378 -0.6982386219 0.3622351158
H 1.2194701508 2.3879199708 0.085320154
