11
0
C -1.165992986 0.0991849586 0.0429812029
C -0.0606401832 -0.7067670879 0.6784450453
C 1.1647711893 -0.1695970429 -0.0805964669
O 0.7398849051 1.0269552979 -0.7602249817
C -0.617524393 1.0401233163 -0.7102481453
H -2.2216351015 -0.0329480647 0.2185843786
H -0.1774130292 -1.7831151316 0.5407440371
H 0.0027603937 -0.5201955802 1.7549259271
H 1.5067771245 -0.8775633044 -0.840376204
H 2.0034438114 0.0910770627 0.5635456649
H -1.0849127313 1.8290335761 -1.2822944581
