17
0
C -1.9784702145 -0.3957987915 0.154501096
C -1.3896956504 -0.4549663431 -1.2268906977
N -0.7689820321 0.7077643978 -1.8348282569
C 0.0818399197 -0.4228375689 -1.4902848602
C 1.0521234197 -0.3009164307 -0.3799921164
C 2.0634285799 0.7293983145 1.443174634
N 1.0939358322 0.7080554192 0.3739184584
H -2.9548305187 0.0922959916 0.1206400617
H -1.3409507804 0.1665725846 0.8364387334
H -2.120606266 -1.4006677991 0.5576947962
H -1.9714992247 -1.0396184825 -1.9345665988
H -0.6196070826 1.4239467084 -1.1273319354
H 0.4514788347 -0.9917228385 -2.3380800126
H 1.7442131273 -1.1451871981 -0.2517117849
H 1.5424458634 0.813144836 2.3993608861
H 2.7041455295 -0.1620566206 1.4670634694
H 2.6915706631 1.6163568209 1.3418941276
