14
0
O -0.1689369566 1.8219399795 0.4100195676
C 1.1265015479 1.5098528986 0.1404744894
C 1.3064629649 0.4136621497 -0.5813561478
C -0.050833818 -0.135864808 -0.9148173455
C -0.5352231897 -1.3636548083 -0.1218706296
C -1.0587131169 -0.3557305346 0.9173741741
N -0.9512336079 0.7258121838 -0.0912555806
H 1.8463949305 2.2149826974 0.5306190982
H 2.2512670845 0.0238145574 -0.923756292
H -0.263551472 -0.1232279199 -1.9875860313
H 0.2309638365 -2.0596207622 0.2143390709
H -1.3275850716 -1.908617981 -0.6326359864
H -0.3630911584 -0.2030151695 1.7443818148
H -2.0685319731 -0.4855534829 1.3047507982
