18
0
C -1.4206588536 -1.5458947115 0.0081794778
C -0.7038677372 -0.2270458583 -0.2518138561
C -1.1641650103 0.8628451899 0.7116812047
N 0.7544814853 -0.2500562451 -0.2203120825
C 1.3887710953 -1.3031130478 0.04154843
C 1.7527606297 1.9499723614 -2.3008541528
O 0.7353530499 2.4290628114 -2.2872769428
H -1.2315590244 -1.9148064254 1.0198664785
H -2.4970087364 -1.3987164433 -0.0922569523
H -1.1273462377 -2.321064697 -0.7026860475
H -0.9517254003 0.1049428156 -1.2665532109
H -0.6633860819 1.8050251407 0.4893355791
H -2.2424648954 1.0136733521 0.6373471179
H -0.9257980864 0.5863096375 1.7417907254
H 2.4769610933 -1.2634640973 0.06046056
H 0.9243122588 -2.2706375178 0.2540952349
H 2.2205016999 1.6621631434 0.8455071315
H 2.6559127512 2.1175045915 1.2478483051
