18
0
C 0.8357461557 -0.7007261933 -1.6613841207
C 1.4432570621 0.7592636487 1.5893978663
O 0.1611917335 0.6321770273 1.3773526856
C -0.6209480584 1.2930400928 0.6025134158
C 0.3285950413 -1.9350996316 -0.9301419685
C -2.0354626858 0.8624418736 0.4987670316
H 0.0169868597 -0.144537602 -2.1226730784
H 1.5380727329 -0.9683856151 -2.4534679441
H 1.3613998531 -0.032957909 -0.9726020989
H 1.8435591326 0.1040118317 2.3414299232
H 1.9753188566 1.5776859888 1.1245936903
H -0.1912777045 2.1060967068 0.0264080359
H -0.3707389143 -1.6660528542 -0.1360566071
H 1.151172844 -2.4821345678 -0.4659887208
H -0.1869677042 -2.6188992712 -1.6076682004
H -2.7265727414 1.690285486 0.6823001014
H -2.2389645915 0.0827197934 1.2332811772
H -2.2708978711 0.460073195 -0.4937251885
