16
0
C 2.9485150404 0.1615064101 -0.1466468507
C 1.67121561 -0.4232127116 0.4060640019
O 0.5847946031 0.3658385658 -0.0464443502
C -0.6243951751 0.0316858223 0.4701373314
C -3.1097754212 0.0821178395 0.4835636741
C -1.7665871279 0.3763372956 -0.1045428506
H 3.8056814156 -0.4295863494 0.1798329018
H 3.0814838684 1.1873824575 0.1990131243
H 2.9266620828 0.166531624 -1.2370257365
H 1.5394340233 -1.4589490374 0.0690477551
H 1.6895350224 -0.4284154902 1.5037876327
H -0.5958334038 -0.5145160642 1.4133457603
H -3.0219948434 -0.4656177061 1.4238325687
H -3.6668399925 1.0010969815 0.6848451689
H -3.7193178918 -0.5179431078 -0.1971859618
H -1.7242788103 0.9140994704 -1.0468291694
