17
0
C -1.8005012883 -0.2107821267 -0.0099616225
C -0.4515470962 0.4329645695 0.0473891021
C 0.4918803333 0.5778193627 -1.1526326819
C 1.6264863207 0.1330355891 -0.2145615442
O 2.7459963121 -0.2338553947 -0.4216440841
C 0.7347574975 0.0784353683 0.9742228843
C -0.0225425291 1.387265903 1.0909711
H -1.7539446526 -1.1762518506 -0.5177223246
H -2.2013011545 -0.3718736214 0.9922910707
H -2.5056349367 0.4214880321 -0.5546612153
H 0.5596060368 1.5638120559 -1.6150366386
H 0.3430682015 -0.1795047424 -1.9247387085
H 1.131755858 -2.705712124 -0.764206944
H 0.8024388282 -0.6152574851 1.8012323135
H 0.4691070363 -3.0474585516 -0.7622797683
H -0.6484251834 1.4424961755 1.9738575162
H 0.4631664162 2.3208698404 0.828741545
