21
0
C 1.6953576264 -0.9193304494 0.8472585486
C 2.3460145723 -1.095541443 -0.4876261386
C 1.695616097 -1.2437546565 -1.6317545077
C -2.1133625359 0.108090438 0.0174115763
C -2.0749583575 0.1129009318 1.5140058115
C -1.3734487051 0.8325932861 -0.815254848
C -0.3136094079 1.8313061758 -0.4713903585
H 0.6082275669 -0.9141324507 0.7569149331
H 1.9833350729 -1.7206471495 1.5326496171
H 2.007202698 0.0208423792 1.310480235
H 3.4338491231 -1.0979217794 -0.4976514846
H 2.2217518143 -1.3652580902 -2.5709001924
H 0.6104227567 -1.2463475881 -1.6655863019
H -2.836651494 -0.5725511995 -0.4244691746
H -1.3174124952 0.7850135324 1.9150816598
H -3.0425510436 0.4151537574 1.9232456622
H -1.8699418693 -0.8905900698 1.89704153
H -1.5433614423 0.69007605 -1.8797662063
H 0.6495825013 1.5180945756 -0.8841286107
H -0.1906098049 1.9671992054 0.6023767546
H -0.5482376733 2.8052665446 -0.9082985047
