10
0
C 1.3630198578 -0.4981186731 0.2406604767
C 1.0208955256 0.7506314108 -0.0256794239
C 0.1147508549 1.5960706551 -0.293278969
C -1.1404988462 1.3674838475 0.1192822123
O -1.5279389877 0.1179328898 0.4211652516
N -1.0176049478 -1.0330397915 -0.3245436204
C 0.2251483544 -1.3050049209 -0.2283193491
H 2.3194020558 -0.9179651458 0.5064591317
H -1.9426199411 2.0820364572 0.277621938
H 0.4444020744 -2.2434987289 -0.7386676481
