14
0
C 2.603384529 -0.02639025 -0.1676916408
C 1.3464242155 -0.1143455876 0.2992595167
C 0.3204665771 -0.2157273989 -0.6840434671
C -0.9716760647 0.4038709204 -0.3402227713
C -2.0203807418 -0.7130628562 -0.297199598
O -1.1036809549 1.1275816428 0.8872083463
H 3.4340869913 0.270801631 0.4643244111
H 1.1387900046 0.043495005 1.3586852805
H 2.7963230579 -0.2023926396 -1.2192991508
H -1.2236924777 1.0646375739 -1.1841428642
H -1.7677471359 -1.439950812 0.4763154972
H -2.986435577 -0.273470383 -0.0508738958
H -2.0761172154 -1.2236797714 -1.2558890594
H -0.5071802081 1.8782209258 0.8673573958
