13
0
O 1.1003134166 1.5133718556 1.8346365773
C 0.6587243804 0.8248228682 0.9278369902
C 1.4195954078 -0.227430423 0.2416581354
O 0.7118346637 -1.0117301051 -0.5162708604
C -0.5996360115 -0.4958913848 -0.5459129779
C -1.4888109514 -0.524647666 0.7097065148
C -0.6534790243 0.630521874 0.3685578973
H 2.4080066565 -0.590737552 0.5034902524
H 0.7797147689 1.2534164694 -2.9214770641
H -1.0559010195 -0.6033332514 -1.5193975368
H -1.2412873377 -1.1204148791 1.5837229684
H -2.5363023054 -0.56270049 0.4256741962
H 0.488638356 1.5701276843 -2.3120630928
