8
0
O 0.4135984946 -0.3586218845 0.2528452984
C -0.4049845963 0.4753959252 -0.3913196118
C 1.7039788022 -0.226108461 0.0216097035
C 2.8847363098 -0.181123289 -0.1260361806
C -1.7353700581 0.1788682622 -0.0182447198
C -2.9200694355 0.0744016382 0.1774300665
H 3.9362779026 -0.1224402112 -0.2731622103
H -3.9644524192 -0.03151098 0.360615654
