16
0
C 1.8074231755 -0.3530376028 -0.05166112
C 0.3200946428 -0.2202823818 -0.107476734
C -0.5203856113 0.6704869349 0.942616932
C -1.3283348287 1.1663581849 -0.2517954435
N -0.4088056433 0.4927598012 -1.2168689124
C -0.5518899107 -0.9362452367 -1.0758948385
C -0.8040458406 -0.5738786399 1.5721996245
H 2.2710864466 0.5482547114 0.3516035354
H 2.1908641689 -0.5097300803 -1.06122038
H 2.1029176965 -1.205324447 0.5614938701
H 0.1531464677 1.4195430709 1.36408142
H -2.3546740582 0.8014578761 -0.3021411094
H -1.3003181502 2.2436052539 -0.4025150428
H -0.0163711769 -1.4864818158 -1.841506098
H -1.4908245546 -1.3615994119 -0.7506334063
H 0.0576931767 -0.7710892171 2.237008703
