15
0
C -1.64034583 -1.1357675956 -0.0114826738
C 0.5412786169 1.3928140323 -0.005392196
O 0.0127618642 1.6334463714 1.2541853313
C 0.4087555565 0.0056635896 -0.5691882814
C 1.7578033708 0.5294336219 -0.1489238858
N -0.2355478993 -0.9310403877 0.3039116379
H -2.1734104985 -0.1891769441 0.0947354763
H -1.8085156031 -1.5034218746 -1.0335650529
H -2.0745251869 -1.8490999216 0.6897937809
H 0.4222061016 2.241659249 -0.6662610692
H -0.2100210149 0.7607114973 1.6094394324
H 0.2199744804 -0.100979574 -1.6372692704
H 2.1708871515 0.1306081442 0.7695759442
H 2.4812182027 0.7535602253 -0.9216157724
H 0.2628166882 -1.8092154335 0.3247755989
