12
0
O 1.8039344228 0.412535716 -0.3779270346
C 0.5537438844 0.1899631359 0.2482420705
C -0.5010323261 0.1811517689 -0.8163338831
C -1.6959348797 0.7305217633 -0.6777307061
C 0.5657471919 -1.1687332363 0.9404289423
O 0.1457675846 -1.3631658549 2.0452615472
H 2.4734707847 0.5418234556 0.2968790566
H 0.3267846749 0.9494026051 1.0037103058
H -0.2292928104 -0.3431040951 -1.7281867743
H -2.4379051549 0.666306801 -1.4636206307
H -1.9781174275 1.259794754 0.2258228129
H 1.0161710552 -1.9823858134 0.3333232936
