13
0
C -1.9787106147 0.3870832451 0.5507655654
N -0.7220132644 0.1958062928 0.1552822864
C -0.0216664431 -0.9919015528 0.5565724228
C 1.2030756089 -1.0031621589 0.0600418591
C 1.4201582979 0.2390273309 -0.7470923315
C 0.1046040958 0.9232550497 -0.5969430883
H -2.440427203 -0.3656278724 1.164271987
H 1.671425835 -0.0094156108 -1.7869563057
H -2.4942574683 1.2790189378 0.2376337688
H -0.5425827692 -1.702427563 1.1787227268
H 1.9335482271 -1.7831690877 0.2124978475
H 2.2678838237 0.8168269097 -0.3559884119
H -0.2134261258 1.8614640797 -1.0178123263
