14
0
C -0.8834041137 1.4046298718 -0.2503679984
N -0.0889191198 0.316745013 0.3305516314
C -0.691697599 -0.5248492167 1.1270891977
C 1.1971769651 0.2656245091 -0.0923404304
C 2.026457584 -0.7641406106 0.3602437903
N 2.6702656706 -1.6362385428 0.7621292958
H -1.8194399193 1.4973418579 0.2914469903
H -1.0783523655 1.1732629751 -1.2966412871
H -0.3215656672 2.3330655966 -0.177659124
H -0.134910478 -1.3545274957 1.5343947649
H -0.6854035084 -1.9002024757 -1.4696197248
H -1.7295081964 -0.3615297803 1.3616160612
H 1.5501755401 1.0456478326 -0.7421797219
H -0.0530797923 -1.6042445342 -1.738610445
