13
0
C -1.2476380999 -0.0782916595 0.9933932304
C -0.5591982072 -1.0148769853 0.1020441377
C 0.2691030992 -0.2942439751 -0.9611448609
C 0.9828035563 0.4280033953 0.3323749538
N 0.1616563824 -0.3875937169 1.2465323851
C -0.0704190545 1.0057744124 -1.3998742312
H -1.507530419 0.9029856195 0.6133029823
H -1.9017584372 -0.4958197894 1.7473887138
H -0.7531088344 -2.08001742 0.0864973748
H 0.989871677 -0.9293996112 -1.4784099656
H 0.9103576515 1.5069907431 0.4806202937
H 2.0243807771 0.1189171747 0.3311010008
H 0.7845399086 1.3631318122 -2.0011250146
