12
0
C -1.4367871689 -0.2708060699 -0.3812882793
C -0.4842533061 -0.6385341158 0.723358216
O -0.6960577415 -1.526367694 1.5107705866
C 0.821167766 0.1041378156 0.8378426994
C 1.9010498673 -0.0707838021 -0.1665065561
O 0.8344755468 1.3205340334 0.0282770489
H -0.9169725556 -0.0606356094 -1.3159818109
H -2.1566997475 -1.07450516 -0.5169575403
H -1.9666720777 0.6414079135 -0.0962207132
H 1.103241125 0.269519119 1.8759552554
H 1.4232768051 -0.5007891026 -1.0623190462
H 1.470543487 1.9344596721 0.4096191399
