14
0
C 0.694971208 -0.8393680574 1.2325486304
O 1.0265111478 1.4413554163 -0.7987230872
C -0.1744352607 0.9795034154 -0.991525701
C -0.2278006235 -0.594191428 -1.0709233917
O -0.5012843525 -0.6625786521 0.4242999895
C -0.9831115981 0.7784934598 0.3472709424
H 0.3897199408 -0.697991966 2.2671631007
H 1.0266437396 -1.8623816552 1.0684500594
H 1.4301412102 -0.1003785547 0.9069588282
H -0.8052728098 1.4482048697 -1.7814479005
H 0.7199649512 -1.0792591466 -1.2922893337
H -1.0846933708 -1.0890459957 -1.5290987198
H -0.608581603 1.3352217627 1.2028939438
H -2.0707845791 0.702808532 0.3227496395
