12
0
C -1.6789087833 0.4646164409 0.4878417583
C -0.67192121 -0.0784776013 -0.4869173265
O -0.8399022205 -0.0624654766 -1.679669972
C 0.6132662114 -0.6500913575 0.096084243
C 1.8258330069 0.0270621125 -0.5046152846
O 2.7590988353 0.4041276063 0.1452096631
H -1.9657162261 -0.3141723655 1.1985885309
H -1.2256946518 1.2729599215 1.067532317
H -2.5561460807 0.8314445585 -0.0397137165
H 0.6524600237 -1.7022298301 -0.206070482
H 0.6629497281 -0.5901937496 1.1824595075
H 1.7912073671 0.1543237409 -1.6029062381
