14
0
C 1.0356513911 0.3617485992 -0.2385289966
C 1.2637386827 -1.091090508 0.1643443384
C -1.2738424958 -0.1911514435 -1.3338461863
O -2.1740236631 -0.3526777695 -0.3774136022
C -1.4822766714 0.4470250011 0.6190657867
C -0.4240072219 0.7313417075 -0.4525105904
H 1.467808308 1.0322511025 0.5106835246
H 1.5655724361 0.5629520534 -1.1733454269
H 0.768420452 -1.338990922 1.1057639362
H 2.327687538 -1.2908581948 0.2981637761
H 0.8886049183 -1.7735062785 -0.6007331655
H -1.1861191955 -0.173928819 1.4641498573
H -2.1056873709 1.2744522676 0.9588435698
H -0.4992951076 1.7502982038 -0.844447821
