15
0
N 2.4230214924 0.8239470025 -0.2690919927
C 1.1747242729 0.2755054552 -0.0532250799
O 0.6224560835 0.336798973 1.0308983481
N 0.6149451714 -0.3184120078 -1.1449417074
C -0.7551899633 -0.7865137177 -1.0945755665
C -1.8747768208 0.2501568757 2.1939146385
O -2.7908352045 -0.2161956699 1.5755404278
H 2.894208152 1.0875044527 0.5788009025
H 3.0110093179 0.4095354515 -0.9710076196
H 0.9848532986 -0.0676900968 -2.0442063769
H -0.9602440641 -1.3638789299 -1.9949286556
H -1.4757213878 0.0308951454 -1.0164902223
H -1.621364917 1.323589031 2.1476586835
H -1.2354204786 -0.3653560615 2.8498115199
H -0.8916769526 -1.4319429033 -0.2294372993
