12
0
C 2.6240009801 -0.1827486702 -0.1961955251
C 1.4721506357 -0.249091945 0.1280049212
C 0.0690142214 -0.3537733997 0.4962158432
C -0.8125744749 -1.2746132338 -0.3990807572
O -1.8758484979 0.243867079 -0.5069704701
C -0.7683749134 0.8791212379 0.1913975077
H 3.6474883804 -0.127905781 -0.4829399409
H -0.0016960304 -0.6502582468 1.5461175561
H -0.4233438099 -1.161318939 -1.4226205114
H -2.5560844664 -0.0248747683 0.1160451884
H -1.1190394875 1.4575989301 1.0472442143
H -0.2958705371 1.5390787368 -0.5323490262
