13
0
C -1.2354861944 -1.1208542864 -0.3886550149
C -0.3101798869 -0.0466758435 0.0479751113
O -0.3607566425 0.453412702 1.3992170994
C -0.3675264848 1.3697487425 0.3193431135
O 0.9489268507 1.6459555645 -0.0610344755
C 1.1447308603 0.2288862327 -0.3727292104
O 2.1562323433 -0.361572638 0.3259898207
H -2.2449440151 -0.923436043 -0.0295720917
H -0.9075251547 -2.0845216164 0.0059705421
H -1.2548268928 -1.1855942124 -1.477535145
H 1.9471115067 -0.269878927 1.2632412167
H -1.1169642901 2.1471512714 0.2874544448
H 1.3432840003 0.1101160537 -1.4381724112
