12
0
C -1.1296230861 0.5519103954 0.9650129083
C -0.0716604557 0.0606144551 0.0415369819
N -0.3171712126 -0.0509137997 -1.4019871994
N 1.3454076924 0.1737934981 0.3545784109
C 0.8370559707 -1.0881546471 -0.0900082753
O 0.659293463 -1.1264256329 -1.4979771278
H -2.0712263798 0.038528145 0.7726397194
H -1.284681154 1.6252826934 0.830396239
H -0.8266205537 0.3806038343 1.9966269807
H 0.0664728344 0.7404873561 -1.9198491119
H 1.914318921 0.6519722609 -0.3373848059
H 1.0405729604 -2.0173525587 0.4229582801
