17
0
C 1.8854128591 0.6893809138 -0.3177067793
C 1.0006971246 -0.2846661939 -0.1513799763
O 1.2739860214 -1.5987315367 -0.4027094762
C -0.4405084572 -0.1475939347 0.3113060115
C -0.747832533 1.2292546087 0.8708862763
C -1.3742775377 -0.4798133547 -0.8562111144
O -0.659472236 -1.0585377361 1.38278674
H 2.1959320731 -1.6969372619 -0.6499953324
H 2.8878548525 0.4865970866 -0.6777550116
H 1.635121283 1.714764943 -0.0963900156
H -0.0761084808 1.4672214291 1.6953941402
H -1.7700937456 1.2306937013 1.2496704454
H -0.6635023745 1.9990963936 0.103315869
H -2.4085768528 -0.4340575538 -0.5128381949
H -1.1769954181 -1.4839556595 -1.2339025952
H -1.2390096829 0.2281618984 -1.6759494675
H -0.308953895 -1.9130987429 1.1167124807
