9
0
N -1.3285110528 0.8928421024 -0.383762095
C 1.310880635 0.437538677 0.1873757696
C 1.3439328312 -0.7905353953 -0.130739624
N 0.2278947564 -0.4020190285 0.7794648612
C -1.032724223 -0.1930599865 0.1851384875
H -2.2982827533 0.8995976945 -0.6845802185
H 1.6492990422 1.452968844 0.2462998268
H 1.7315247344 -1.6925921217 -0.5641305339
H -1.7182329703 -1.0309797861 0.3426255263
