12
0
N -2.0870466876 -0.179205134 -0.0672475568
C -0.7219443062 0.0965270123 -0.2147460964
C 0.3959637439 -0.9446928296 -0.2831349209
C 1.2532336995 -0.0532494756 0.2365501257
O 2.5617216147 0.0291195675 0.4769484612
C 0.2243092173 1.0494093477 0.3572793047
O -0.3467411905 1.2401270938 -0.9691270912
H -2.6212752184 0.6487090857 0.1535052833
H -2.2519696134 -0.9037341229 0.6154604887
H 0.4968679937 -1.880964862 -0.8133570204
H 2.9871024723 -0.8006379379 0.2420956106
H 0.1092012748 1.8390472551 1.0846914113
