12
0
N 2.4967203421 1.4307972301 0.1131536967
C 1.6176468345 0.7847900739 -0.2440270106
C 0.4135356953 -1.3332249623 0.1422962027
O -0.3887487966 -1.0399643646 1.1718347866
C -1.0825880934 0.0367728622 1.0235598446
C -0.8723835976 0.5468368389 -0.3565731262
C 0.4990706528 -0.0773522623 -0.6904673268
H 1.2384258133 -1.9781961221 0.4013161812
H -1.8577919802 0.2338828533 1.7449919605
H -1.6191983025 0.0707783641 -1.0155213502
H -0.929272046 1.6257547222 -0.4746070946
H 0.6176214783 -0.2582472335 -1.7568257639
