14
0
C -1.7955252965 0.096454725 0.0759310646
C -0.6221104389 -0.7825173158 -0.327989013
C 0.7292116578 -0.1364962154 -0.1862439343
N 1.8414101676 -0.9501374025 -0.5415725937
C 0.8689933069 1.1110494828 0.1917911772
N 1.003164694 2.3236661715 0.3514082229
H -1.8298808125 1.0094067554 -0.5214529142
H -1.7308356442 0.3879227523 1.1265023406
H -2.7380081283 -0.4335095626 -0.0655495314
H -0.6272732257 -1.7033627526 0.2680874652
H -0.7241783119 -1.1002303764 -1.3704014605
H 1.0639270717 2.6011048444 1.3305101252
H 2.7071369973 -0.4331407157 -0.5758512475
H 1.9506179628 -1.7362393904 0.0861282989
