14
0
C 2.5020383256 0.1255911245 0.3987432928
C 1.1986680589 0.2608683782 0.2104345795
C 0.1931522424 -0.7592438501 -0.2753624686
C -1.0893254525 0.0183396545 -0.1911836085
N -2.2979194826 -0.5217547249 -0.6292533076
C -0.8009867903 1.2434218691 0.2279591715
O 0.5523501654 1.4457716878 0.4573836774
H 0.3972476961 -1.078419901 -1.3012257002
H 2.9845115287 -0.8183622334 0.1909821488
H 3.100152622 0.9515762653 0.7569633693
H 0.187907052 -1.654304493 0.3534395841
H -2.4598260861 -1.4612526978 -0.2990521838
H -3.0980973041 0.0600451693 -0.4363198018
H -1.4281735758 2.1041187516 0.3975782471
