15
0
C 0.1000508996 1.8910857918 -0.2866258922
C 1.40699919 -0.5035472872 0.5156399972
C 0.2970679723 -1.3733613469 0.0744793165
O -0.9404083069 -1.3202613128 0.6935597199
C -1.3438660649 0.0448471051 0.7419108171
C -0.7275966459 0.7245374394 -0.4832903349
C 0.5846788357 -0.0954363852 -0.7008414201
H 1.3056120509 0.0925497822 1.4099638385
H 0.2950708192 2.3123061318 -1.2907673761
H 2.4136275077 -0.838452575 0.3039936623
H 0.4964944325 -2.334511065 -0.3814203015
H -0.9736644938 0.5299156993 1.6499496757
H -2.4333137118 0.0705044491 0.7425699984
H -1.337700579 0.614162558 -1.3850438212
H 1.0145980946 -0.1263439847 -1.6902178796
