13
0
O 2.1406816904 0.9250983678 -1.567746821
C 1.9108481052 0.3794025486 -0.3360293269
C 0.7442605316 -0.0739120722 0.0849276315
O 0.4618689829 -0.6510061647 1.326598056
C -0.8714145997 -0.9246326847 0.8804318376
C -1.5995183145 0.3311175125 0.5824566217
C -0.6376676431 -0.2435837406 -0.441842957
H 2.7967192974 0.330867152 0.2818222857
H 1.3066465387 1.030988465 -2.0312947831
H -1.3042220726 -1.8808558979 1.1369424924
H -2.6468816852 0.2112914453 0.3326197507
H -1.3415088618 1.2376083027 1.1167109321
H -0.9299759693 -0.5384852338 -1.4387367199
