16
0
C 1.8853568762 -0.2960084502 -0.911142484
N 1.5748341422 -0.2685707213 0.3118899784
C 2.4990910143 0.225486513 1.2480891502
O 2.9784109426 1.3214174816 1.2082423078
C -1.8519917482 0.8684361303 -0.7784878269
C -2.1486846014 -0.4517474406 -0.0883676659
O -1.1044386162 -1.3928206587 -0.2329199533
H 2.8702635795 0.0092844394 -1.2720326877
H 1.1452468015 -0.6381823718 -1.6313684658
H -0.9715193224 1.3471284948 -0.3427546443
H 2.6908061055 -0.4882231457 2.0657492703
H -2.6934138654 1.5575170782 -0.676534966
H -1.6652338085 0.7088085348 -1.8424249315
H -2.3687825052 -0.2789777971 0.9731906068
H -3.034812035 -0.9144791174 -0.5278774389
H -0.3289509593 -1.0659639689 0.2413787507
