16
0
C 2.0887814742 0.7789871469 -0.7633554205
O 0.7806025394 0.3224814892 -1.0192354749
C 0.4425579118 -0.8421134456 -0.2918011346
C -1.0544995062 -0.9746151386 -0.4029848784
C -1.5530898629 0.4350887517 1.6683385681
O -1.6621827581 0.2652449408 0.0117093648
H 2.832628607 0.0344644576 -1.0693540669
H 2.2355379924 1.6872378746 -1.3455250496
H 2.2260382076 1.001846191 0.3004467558
H 0.7052301708 -0.7240258433 0.7645730387
H 0.9374611653 -1.7279022281 -0.7087965345
H -1.3705222298 -1.1561929817 -1.4322999227
H -1.4399379504 -1.7429394295 0.2619258275
H -2.6162888759 0.2419550443 1.8772726099
H -1.4795344461 1.5359470608 1.6831010843
H -1.0911244392 0.9556511098 -0.3606247666
