14
0
C 1.5929006422 -0.5312292271 -1.5184444165
O 0.456990407 -0.0225392965 -0.847669136
C -0.0711748492 -0.8392441608 0.106686681
C -0.9573407074 -0.4035136755 0.9898520907
C -1.449999862 1.0167042248 1.0729799858
O -0.4356052329 1.9904039138 0.9413992516
H 1.3717631377 -1.4973589945 -1.9825710104
H 2.4378731517 -0.6421949415 -0.8326687711
H 1.8501987055 0.1863000202 -2.2945014045
H 0.2725471353 -1.8700798261 0.0809831788
H -1.908712811 1.1846985922 2.0483275798
H -1.3542434145 -1.1312279761 1.686260613
H -2.2352075027 1.1762592811 0.3192540294
H 0.0758602004 1.764470066 0.1592413281
