8
0
N -0.8624034459 -0.180866698 0.3118527833
C 0.2780140598 0.7145897575 -0.0872515998
C 1.4294958566 -0.0655680635 -0.2887519005
N 2.3748790026 -0.7321103587 -0.3763657391
H -1.1702663268 -0.8677104612 -0.3858941138
H -0.5855100898 -0.6984655613 1.1428084426
H -1.6602952193 0.3915328603 0.5713991129
H -0.0253028372 1.3398785251 -0.9183419854
