15
0
O 2.6834051647 -0.0698389968 -0.056479278
C 1.491874254 -0.1207198735 -0.2256054648
N 0.6794342538 -1.179584084 -0.1231380125
C -0.7654444234 -1.0497477858 -0.2457613552
C -1.2968145322 0.1708284133 0.5382620182
C -0.3624674826 1.3804263138 0.5461217023
N 0.7246446644 1.1078786677 -0.5125860064
H 1.1041277728 -2.0321597763 0.1967135946
H -1.0252481942 -0.9509378891 -1.3059109375
H -1.213743558 -1.9836363131 0.0916378232
H -1.4924053448 -0.1224676517 1.5736149683
H -2.2741228224 0.4074097015 0.1014346238
H 0.2314788272 1.3723235185 1.4667477824
H 0.2994754598 1.0901051849 -1.4361885681
H 1.3888469609 1.8762535706 -0.5009778905
