15
0
C -1.6769894623 -1.0625081995 -0.212750798
N -0.5032520461 -0.5691729537 0.458342823
C -0.2653019618 0.8785133817 0.4620439409
C 0.8020898759 -0.7977810988 -0.1734131795
C 1.2399254363 0.5817398015 0.3198539149
O 1.9895160536 1.3154899151 -0.6101772135
H -1.7460350369 -0.7160199798 -1.2584545636
H -2.5729536087 -0.7319054119 0.3166777738
H -1.6718153194 -2.1545018627 -0.2139462085
H -0.6255928649 1.4088587924 1.3468195263
H 2.3119135582 2.1154297749 -0.1927580979
H -0.6334121525 1.3767385649 -0.4476671657
H 0.7541740158 -0.7981431662 -1.2726576195
H 1.345093759 -1.679588005 0.1718762505
H 1.7420777536 0.5316084471 1.2900236167
