15
0
C -1.7036114828 1.0424637831 -0.2113189724
C 0.3940160943 -0.0372347028 0.813082851
C 1.6988195555 -0.4637165929 0.1690286599
C 2.3090587676 0.6348018686 -0.5807335069
N 2.7439379375 1.4881934077 -1.2127913451
C -0.6474468827 -1.0867078846 0.7581803568
N -0.6941479598 -0.0086463828 -0.2456536967
H -1.864636929 1.3114728489 0.8292453455
H -1.3225754138 1.9127370621 -0.7441160813
H -2.6332240551 0.6938275061 -0.6650068938
H 1.6231644241 -1.3237571539 -0.525416402
H 2.3890371715 -0.7646747327 0.9596153897
H -1.4670784103 -1.0760360701 1.4702386315
H -0.4786180723 -2.0652343425 0.3006717318
H -0.4720237447 -0.3294306142 -1.1830050681
