18
0
C -1.4040698063 -0.7209708842 -0.4896134421
C -1.0962364738 0.3216339365 0.6054686698
C -0.1470931246 1.0321837697 -0.3868107215
C 1.1645242554 1.581858364 0.1303875532
C -0.1300808489 -0.2632016179 -1.2299245391
O 1.431574689 -2.1638729293 1.5618096624
H -2.3052439054 -0.4670599998 -1.0493224247
H -1.4778579709 -1.7692606535 -0.1937495511
H 0.6330146199 -2.2684063075 1.0408760466
H -1.9314906414 0.8936921811 1.0100071037
H -0.535933052 -0.1124444506 1.4368497407
H -0.693568917 1.8102127492 -0.9277636703
H 1.7053560077 0.8166258393 0.6940013717
H 1.8061588532 1.9179339275 -0.688019279
H 1.0029164369 2.4302534827 0.7994343594
H 0.7353148084 -0.8829216884 -0.9796098568
H -0.176257235 -0.1681198497 -2.3152312644
H 2.099837305 -1.8718408692 0.9397482415
