12
0
N -1.9280309189 -0.2761513302 0.6198617781
C -0.5730551264 0.0478958261 0.1544449186
N 0.3827189445 -0.8695889731 0.153487443
C 1.4057130926 -0.1355302702 -0.348063046
O 2.6358768289 -0.6742937874 -0.5384849128
C 0.9978780984 1.1571265802 -0.610940147
N -0.3307538303 1.2594882356 -0.2685739601
H -1.9354708124 -0.5621272715 1.5986524062
H -2.3487645135 -1.0224924388 0.0669915196
H 2.5787757267 -1.5925100293 -0.2635717235
H 1.5570102939 1.9854920598 -1.0133783824
H -2.4715187834 0.580364399 0.5093081061
