19
0
C -1.854861061 -0.7227330411 -0.4980620347
C -1.8488718162 0.4856232068 0.3809722793
C -1.438155613 0.5095106165 1.64194801
C 2.0775833584 -1.0392988339 0.8564201419
C 1.7474465636 -1.2423789129 -0.3826458777
C 2.2656317893 0.1059401782 -0.0583802598
O 1.4363584304 1.2358045949 -0.0219830233
H -1.4615314517 -1.5971212267 0.021914484
H -2.8685057668 -0.9479489015 -0.8387240101
H -1.2496730248 -0.5496858794 -1.3920151927
H -2.2100384417 1.4078221855 -0.0683765267
H 0.2821846461 1.1404478667 -3.0826545109
H -1.0699527173 -0.3862050224 2.1323668877
H -1.4595938265 1.4204487331 2.2277437835
H 2.1313693793 -1.4147573526 1.8651898621
H 0.6050273106 1.2095145662 -2.4118880151
H 1.3356826444 -1.9057277596 -1.1250784863
H 3.2533227553 0.4266226131 -0.3774772999
H 0.5848628415 0.9906973692 0.3606337889
