13
0
O -2.2007146441 1.0076144897 0.453469775
C 1.2178965727 -1.5829376435 -0.3537525067
C -0.1822749548 -1.1462987114 -0.0239313239
C -0.0002582391 0.3473802348 -0.0270027413
C -0.9183082467 1.2994319568 0.1833950913
C 2.1615474416 -0.5845741759 -0.3503404667
C 1.4152773705 0.5739317279 -0.1161260595
H -2.705421166 1.8093311555 0.6005171527
H 1.3963734206 -2.5971857121 -0.7043035923
H -0.5740311804 -1.5017918406 0.9350913903
H -0.8710245657 -1.5089677146 -0.7935276931
H -0.6530551839 2.3524807743 0.1388284886
H 1.8430503753 1.5531234594 0.0897314853
