14
0
O -0.2256370481 -0.5133553951 2.5973487283
C -0.239564125 -0.1496131211 1.4686534067
C -1.0487431033 0.8282047329 0.6306333082
N -0.3667211425 0.30505884 -0.5756590367
C 0.5710962285 -0.50769564 0.2001971154
C 1.9885507794 0.0016870692 0.2679060283
O 2.3481465096 1.0027904722 -0.2870949588
H -1.8619569847 -1.3701344572 -3.1141892355
H -1.5687526508 -1.0248440846 -2.5192927623
H -0.8210375725 1.8690378108 0.8823374538
H -2.1297511494 0.6781241178 0.646877668
H 0.1171566295 1.0197642343 -1.1060478151
H 0.5801505928 -1.5775060211 -0.0356587545
H 2.6804740366 -0.6060475581 0.8800088541
