10
0
O 2.040198575 -0.0718303281 -1.3081047095
C 1.232297173 0.1111206119 -0.2904171976
N 1.070858091 -0.1626316993 0.9107051863
N -1.3633568016 -1.0535839151 -0.6995738115
C -1.2984984579 0.0732840269 -0.1331062717
C 0.0137915116 0.7054966863 0.1606566856
H 2.7518252841 -0.6657499446 -1.0380579482
H -2.3268017834 -1.3611447326 -0.8027152026
H -2.1802864412 0.6439506729 0.1793610448
H -0.0124691507 1.7523086218 0.4513762245
