11
0
O -0.0387950289 -0.0347285872 1.7723202057
C 1.0768962274 0.5132441968 -1.0851922346
C -0.2723515255 0.6642896945 -0.5424008857
C -0.7609755523 -0.2477802029 0.5796818188
C 1.677841771 -0.7361349122 -0.9748181638
N 2.2739445123 -1.7335499139 -0.9726028133
H -0.2706023916 0.8225972223 2.1344666836
H -0.4932827246 1.7190227583 -0.3512335462
H -0.8338174109 0.450653863 -1.4779721803
H -1.8372260509 -0.1033025463 0.7326838158
H -0.5972058261 -1.2929445725 0.3112322998
