12
0
N 1.9111562139 1.3242763875 0.3731126829
C 0.7633337803 0.8451061504 0.1663660267
C -0.5550461461 1.5297885529 0.0337334082
C -1.4541262935 0.5714658204 -0.1758813317
C -0.6947133021 -0.7041396486 -0.1732198195
N 0.5597055926 -0.5611983578 0.0190053855
H 1.0704017663 -3.2093965819 -0.0886433974
H 1.8603893813 2.338639691 0.4520979805
H -0.7063107869 2.5968620548 0.1026869965
H -2.5202641056 0.668960487 -0.3208968097
H -1.136841563 -1.6852453964 -0.3167979557
H 0.9030654631 -3.9289021594 -0.2008631663
