14
0
N 2.5901654617 -0.7292765295 0.4652183718
C 1.7801496494 -0.9877619131 -0.3126946398
O 0.9009600645 -1.3087247918 -1.188801368
C -0.3551004191 -0.5705531156 -1.1341774787
C -1.0856698291 -0.5224986996 0.2335144225
C -1.0047532479 0.977674676 0.054958167
C -0.2934487245 0.9278617729 -1.0696543636
H 1.3365864493 0.6735832404 2.4682405183
H -0.9229108034 -1.0022573909 -1.9554347064
H -0.488702265 -0.9154596673 1.0578873341
H -2.0783223589 -0.9750799134 0.25655647
H 0.8710273426 1.0500978888 2.9140549261
H -1.4221865577 1.7935137635 0.6301038823
H 0.1209432383 1.6668436796 -1.7412115356
