16
0
C -0.6783568415 1.9033588291 -1.1242155325
C 0.0595334462 1.0011544798 -0.4791928846
C -0.1153025822 -0.4801392419 -0.4126647966
C -1.1540582203 -1.1766568748 -0.876616786
C 1.0634167226 -0.9763955292 0.2961329867
C 1.8009134796 0.0819131902 0.6559861074
N 1.2036141573 1.2736870468 0.2789527978
H -0.4443170918 2.9594174102 -1.0897258164
H -1.5868638067 -1.9284243126 2.7347582909
H -1.5364036417 1.597512448 -1.7049115679
H -1.1915939645 -2.2539268066 -0.7754363118
H -1.9928214581 -0.6950675507 -1.3627563172
H -1.5548656616 -1.5845731843 2.0734832481
H 1.2710524972 -2.0094366015 0.5226837293
H 2.733074154 0.1008082938 1.2014814627
H 1.7198128113 2.1260264038 0.1690053902
