16
0
C -0.8659969859 -1.1494101519 -0.5980417173
C 0.1107040867 -0.3662208411 0.2281225996
C -0.0378504983 1.1358037436 0.1635911503
C 1.0340865915 -0.9391364034 0.9904298785
C -1.2301649036 1.562264868 0.989052845
O -2.2386375959 2.0316774577 0.5418136838
H -1.896342812 -0.875363735 -0.3557153395
H -0.7245898295 -0.93150909 -1.6603894265
H -0.7468794311 -2.2217202557 -0.4470373501
H -0.1858189566 1.4767144685 -0.8629598318
H 2.0583895107 -0.386305956 -1.8985053018
H 0.8515755981 1.6154762187 0.5802446184
H 2.1863482372 -0.234928532 -2.6178343682
H 1.7359972253 -0.3517455641 1.571080032
H 1.1228964052 -2.0174688749 1.0540737292
H -1.121669642 1.3833736475 2.0799497981
