11
0
N 2.5253190547 -0.1164312253 0.3375206713
C 1.1667446457 0.0753745275 0.139177314
C 0.1856235697 0.8713869123 -0.234997007
C -1.2348265112 0.5276601599 -0.1680120515
C -1.752824907 -0.6443855521 0.1873575567
O 1.4297247012 -1.1235217383 0.6398249783
H 2.9342241369 -0.4625624759 -0.5333220999
H 0.4780205776 1.8449738285 -0.6049255876
H -1.9106738173 1.3327032927 -0.4382923836
H -2.8252498367 -0.787456356 0.2117222147
H -1.1379136137 -1.4928803733 0.4639413947
