14
0
O 0.9208576898 1.9372671045 1.4793775055
C 1.4186518385 1.254899614 0.5933298378
C 0.7917635355 0.875335166 -0.6221520855
C 0.3169255124 -0.4279875871 -1.0451701487
C -0.1984869402 -1.3328723848 0.0962296892
C -1.172438033 -0.2067236563 0.4868353811
N -0.6592106764 0.6492308345 -0.6329339637
H 2.4783441137 0.9297951804 0.6643306034
H -1.2641565177 1.1575675015 -1.2605358782
H 0.3520943096 -0.7735652788 -2.0738878465
H 0.5580943624 -1.5968814654 0.8317971603
H -0.7089990864 -2.2332894722 -0.2429411748
H -1.0319418673 0.2870029405 1.4457671122
H -2.2191102408 -0.4592184966 0.3266338078
