11
0
O -2.5891806498 0.3143169308 0.1594214581
C -1.4381707902 0.0995709506 -0.4982208984
N -0.3558973978 0.8018831835 0.1000505977
C 0.7674652905 0.3017681427 0.0685226892
O 2.8753946514 -0.0537020021 -0.963887154
C 1.9727460583 -0.195586987 0.0533752851
N -1.3115824566 -0.5825028304 -1.5439594365
H -2.4206811565 0.9388028153 0.8727721024
H 2.4151790873 0.1875740209 -1.7715401597
H 2.3337262244 -0.7674506549 0.8967855119
H -2.2077148609 -0.9541355692 -1.8444019957
