12
0
C -1.2465734147 1.3649101432 1.2166554011
C -0.8725278136 0.2063900151 0.325696849
O -1.6849488678 -0.5931487507 -0.0667416638
C 1.4698813315 -1.7468956881 -1.6055855796
C 1.0345376574 -0.8138324124 -0.8218699463
C 0.5749229332 0.1229001872 -0.0358501504
H -2.3181681282 1.3603997224 1.4005597795
H -0.952000729 2.3078389993 0.749751543
H -0.7081610398 1.293367276 2.1650767641
H 1.4941933753 -1.6025920681 -2.6792387207
H 1.8109183267 -2.6944677664 -1.205966179
H 1.2551093692 0.8675453423 0.3648009031
