12
0
C 1.6012655286 0.3504651738 -0.7302269391
O 1.3067827782 -0.4193163194 0.8594925132
C 0.3165919713 0.0540102663 -0.1036684065
C -0.8022991777 0.8953215747 0.4929541475
O -1.7774637434 -0.0828026753 0.0997372493
C -0.7864576761 -0.8938784241 -0.5467279501
H 1.5684450741 -1.3142568346 0.6176187204
H 1.9102142798 1.3409803543 -0.3626817661
H -0.9602102459 1.8561449342 -0.0047010232
H -0.7519315359 1.0337453341 1.5757522999
H -0.7444644571 -1.9086313578 -0.1372439487
H -0.9220967957 -0.9371530264 -1.6308758965
