14
0
C -1.1597835505 -0.7543448633 -0.3693323621
C 0.0359210864 0.1048259634 -0.0444741269
N -0.2426394744 -0.1015900756 2.4014641682
C 0.3852956661 0.3099095738 1.3872649054
C 1.2752264749 0.0642160112 -1.0182263383
C 0.3804774103 1.2101715428 -0.9701563938
O 0.0744174889 2.2780743088 -1.3917903642
H -2.0687787401 -0.3353298447 0.0663190703
H -1.0236097304 -1.7693186736 0.0117181912
H -1.3148249115 -0.8162131526 -1.4469737862
H -1.078156699 -0.6253125826 2.1415654045
H 1.2972271877 0.887926807 1.5645131541
H 1.2155126233 -0.6084895001 -1.8661760999
H 2.2569021681 0.1463284854 -0.5641004226
