14
0
C -1.0655127516 -1.4055408069 -0.3172863882
C -0.8055139412 -0.0223687235 -0.7189932751
N -0.4224862767 1.2117065779 -0.043907176
O -1.6423545194 1.7591010481 0.5664203172
C -0.6909068822 1.0148775283 -1.457928536
C 2.4823750472 -0.2723269316 0.9441080726
O 2.1968952764 -1.4323294013 0.8243260988
H -1.8700562313 -1.4185500846 0.4195954041
H -1.3554954277 -2.0122720272 -1.1736715014
H -0.1666963523 -1.8225756777 0.1430557376
H -1.2956204444 2.2301552024 1.3288261727
H -0.7149971918 1.6052080622 -2.3543874696
H 3.5086918812 0.0357977363 1.2235541623
H 1.7404408138 0.5301994979 0.7804963809
