17
0
C 1.1685021066 0.5677478823 -1.3298258008
C 1.1496291014 1.059167743 0.0590148413
O 0.1405208061 1.779160661 0.465151217
C -0.9578104516 2.0326911424 -0.1711159047
C -1.4884140971 -1.5258061427 0.6317960321
C -0.4261812134 -2.274258128 0.9018563921
O 0.8392373561 -1.8517402243 1.0941733944
H 1.0429137047 1.4009124966 -2.042138077
H 0.3494037919 -0.1367528298 -1.5295321136
H 2.1089516031 0.0630391303 -1.5406762962
H 2.0096428926 1.1460195791 0.7056792324
H -1.1231326077 1.6403517335 -1.1626180355
H -1.6712253174 2.6213444728 0.3794347203
H -2.4526544967 -1.9946587342 0.4995773103
H -1.4358466681 -0.4435314078 0.5527744412
H -0.4944452334 -3.3526867177 0.9961615582
H 0.882410723 -0.8884946562 0.9658350884
