13
0
C -1.9660177219 -1.1040429471 -0.0349617277
C -0.893648201 -0.0798032705 -0.1283676819
C 2.0268983455 1.2992640958 -0.3044149532
C 1.2181587956 0.7610910605 0.7843529329
O 2.5432244048 0.2879201683 0.5574431376
N 0.2486722618 -0.204781313 0.4686285902
H -2.3764293868 -1.3247091577 -1.022133915
H -1.5920885229 -2.0360089178 0.3928934394
H -2.7952736024 -0.7540198849 0.5885510355
H -1.074273288 0.8670144179 -0.6232007593
H 1.8583588378 0.9750240481 -1.3318378775
H 2.4782398507 2.2817488092 -0.2006728235
H 0.4205792268 -1.0873591089 0.9406426024
