15
0
C -0.8182389227 -0.1164016732 -0.6895850398
C -1.0480633948 1.3679436349 -0.7652600057
O -1.6401235349 2.0119611853 0.056458017
C 0.6554151958 -0.4451519742 -0.7328576484
C 1.4567453161 -0.5262523388 0.5046550371
N 1.0365681562 -1.7409722537 -0.1919416358
H -1.5423816221 0.5823344253 3.1319921107
H -1.3156940541 -0.579888856 -1.5494652119
H -1.2678453739 -0.5116414869 0.2212358015
H -0.6176926955 1.8694835982 -1.6594443291
H -1.5962419332 0.9543841649 2.4870424597
H 1.1775288156 -0.1057551196 -1.6241659119
H 0.9740986739 -0.3608146526 1.4610881835
H 2.4997125649 -0.2336627064 0.4609800088
H 1.8046918087 -2.1419819472 -0.7143588357
