9
0
O 1.5672741286 -0.8245188122 0.3297951384
C 0.4117498893 -0.1890931395 0.0830163672
C 0.0605832849 1.0378647275 -0.3143893241
O -1.3158434847 1.0637425744 -0.3808115906
C -1.8553825648 -0.1183925749 -0.0350068408
N -0.7745174683 -0.8762182919 0.2472715887
H 2.3060252877 -0.2320985343 0.1765186386
H 0.6063271958 1.9275832361 -0.5694189674
H -0.8395322683 -1.8343481851 0.54319399
