19
0
C 3.1112009637 0.2272732639 0.4194647344
C 1.7626677797 -0.0101847448 -0.2180540416
O 0.8510952549 -0.3919773366 0.7946090166
C -0.4233377941 -0.6520519669 0.3108623168
C -1.5755223776 -0.3101616643 1.231920268
C -1.332128974 0.4586555799 0.0063011963
C -1.6702545458 1.4564951962 -0.7785810343
H 3.4720229378 -0.680338466 0.9049664938
H 3.0428600111 1.0154720299 1.1702997979
H 3.8393730289 0.5284509241 -0.3354995908
H 1.8273688984 -0.8010089094 -0.9787414258
H 1.3991772559 0.8988081403 -0.7139516326
H -0.5069222004 -1.5632483555 -0.2823700561
H -1.305087436 0.1547828001 2.1734798441
H -2.4162258722 -0.9932319432 1.2769284623
H -3.1902098992 -1.2606179501 -1.4333393391
H -1.1109306759 1.6767996738 -1.6808638778
H -3.5304555718 -1.9246122039 -1.4368805516
H -2.5177117833 2.0929089323 -0.5490515804
