11
0
N -1.6933673352 -0.5628877172 0.6189314794
C -0.4012309331 -0.663790182 0.2278953554
C 0.572108097 -1.2679383196 -0.3771665012
C 0.9347719527 -0.07084757 0.4352001168
N 1.3223757938 1.1775673602 -0.2173271284
N 0.3861317952 1.7413806601 -0.7812622996
H -2.3628429499 -1.0769523005 0.0711481783
H -1.9931457858 0.3653829732 0.8618192882
H 0.9708146697 -2.0660704736 -0.9737697042
H 1.4887065556 -0.1708457207 1.3690658499
H 0.7653561402 2.58834929 -1.2222546347
