16
0
C 1.669935385 0.6236378727 -0.1942408173
C 0.9247221306 -0.4045565389 0.2026478568
O 1.4406592944 -1.5739411457 0.6703477044
C -0.5549922742 -0.4591116102 0.2075676993
C -1.3965542806 0.7744815954 0.1652623243
C -1.309267451 -0.0189423124 1.4329368442
H 1.2128735048 1.5181456556 -0.5882783413
H 0.1764258003 -0.1479102283 -2.7421440891
H 2.7521821272 0.5951126148 -0.1394635628
H 2.3991669147 -1.5387680593 0.6229438408
H -0.29432387 -0.2993442142 -3.3007600584
H -0.9471295366 -1.3371479552 -0.2934612163
H -2.3128391931 0.7320996502 -0.4078716017
H -0.8985730984 1.7342503216 0.1418280783
H -2.1626730962 -0.6081572353 1.7406331669
H -0.7278263568 0.3990595893 2.2441221721
