11
0
C -2.0103013012 0.1596787056 -0.3307122941
C -0.8488437268 -0.7932535125 -0.2969681266
O -0.9214849144 -1.9747439653 -0.5468740862
C 0.5017324748 -0.2202414597 -0.0554324381
O 0.7897322088 -0.2574676017 1.2029183209
C 3.374365387 0.7509967605 0.2741260422
O 4.1453517104 1.0606454058 -0.4778094559
H -2.133527996 0.6257831803 0.6503261048
H -2.9155188738 -0.378601567 -0.6047104172
H -1.817258801 0.956729409 -1.0515909614
H 1.700881832 0.0779046452 1.3078403118
