11
0
O 1.952289353 -0.1653463825 -0.988627755
C 1.541918236 0.0622178729 0.322042182
C 0.0598159584 0.0653621011 0.4841009712
N -0.6881147434 -0.1495939573 -0.512694642
C -2.0789051128 -0.0722664996 -0.345427476
O -2.6505308116 0.834407824 0.190135356
H 1.9548092229 -0.6986596089 0.9998465651
H -0.3435951274 0.2518959902 1.4841952316
H 1.9154088201 1.0310259555 0.6833442161
H 1.1542950529 -0.3049742051 -1.5146134284
H -2.6068798482 -0.9202300904 -0.8100842206
