16
0
C 1.5192411318 0.0209457798 -0.5335743952
C 2.5859119898 -0.0806955228 0.5124802962
C 1.214018258 0.3869385163 0.8908472638
C -1.6155726006 -1.1267156003 -0.0682852787
C -2.4026805813 0.0717254338 0.3279563243
C -2.0893763037 -0.1657160004 -1.0995535328
H 1.0963703856 -0.8984529871 -0.9174821305
H 1.5989773047 0.8208675606 -1.2588750434
H 2.8886651719 -1.0688530542 0.8320099528
H 3.3849296841 0.6487687003 0.4954440437
H 1.0831215232 1.4343563342 1.1317115466
H 0.5920574815 -0.2904817687 1.4620866645
H -3.3948761925 -0.1303742359 0.7188673901
H -1.860933757 0.8300776868 0.883222251
H -2.8465040577 -0.5401135662 -1.7809990097
H -1.3132024379 0.415912724 -1.5859363427
