15
0
C 0.884173192 1.1005610581 0.2074789466
C 1.5674168973 0.1441830583 -0.7916526621
C -0.2379752226 -0.9534762511 -0.00932301
O -1.6651461334 -1.2217681191 0.0194438803
C -1.7927113483 0.014309191 0.7895666023
C -0.5135647022 0.5096257865 0.0859617045
C 0.8886710327 -0.990172275 -1.006851588
H 1.3190944632 0.9743959507 1.2053145753
H 0.9835786835 2.148830212 -0.0756056233
H 2.5324666875 0.3702202278 -1.2288442186
H 0.1574620956 -1.3598954629 0.9374825949
H -1.6886872565 -0.1890803017 1.8604467061
H -2.7308614157 0.5267803908 0.5805725486
H -0.8704187408 0.7942604542 -0.9072295032
H 1.2122107677 -1.8159479196 -1.6253359535
