12
0
O 1.7795591909 0.5804812477 0.8786649839
C 1.8858249853 0.0776596674 -0.3283770894
C 0.5831225199 -0.5539088094 -0.7029645882
C -0.5821031361 -0.475589572 0.2473887721
C -1.5713470225 0.5918911294 0.1586714432
O -1.8620103044 -0.7104745178 -0.3208647176
H 2.6232999855 0.9817631995 1.1122770469
H 0.8323024108 -1.5988841263 -0.9300737954
H 0.3111401856 -0.1356116305 -1.6788885514
H -0.4397278018 -0.946171284 1.2171810709
H -2.120477356 0.8960341956 1.0448493054
H -1.4610016572 1.3547475005 -0.6079748806
