8
0
O 3.3370737732 -0.4816525152 0.0897805302
C 2.2972653643 -0.9835551818 0.0905509075
O 1.2579959434 -1.4939287264 0.091924243
C -1.8522380763 0.2959272376 -0.0339003682
C -0.7475429845 0.9910145841 -0.0851091591
O 0.2318397962 1.6051090803 -0.1304581332
H -1.7871054063 -0.7794818287 0.0256662073
H -2.8021114099 0.8065143502 -0.0503382273
