12
0
O 0.7764210421 1.1783821753 -1.0686069323
C 0.5767543816 -0.0749151061 -0.5270701754
C -0.8073638921 -0.6778688831 -0.0871231582
C 0.2227001375 -0.3628865857 0.8941310614
C 1.3057062758 -1.1155304926 -1.0517926847
O 1.8920884484 -2.0371011751 -1.3848087262
H 0.9030466032 1.7553297619 -0.3057266218
H -1.0768161874 -1.6863277301 -0.4085638983
H -1.5735490177 0.0650381209 -0.2969204588
H 0.7452579532 -1.1649452963 1.4074802328
H -1.239096513 1.9187811285 1.5170507684
H -1.7390362317 2.4605690824 1.3873435929
