16
0
C -0.5708616449 0.2099463628 -1.139083047
C -0.5839519776 1.0028692184 0.1853201647
O -1.8235466356 1.3558209156 0.7441407855
C 0.0848649057 -0.1906885122 0.8743523435
C 0.501636536 -0.7130431169 -0.5164962048
O 0.3235252042 -2.0965740647 -0.633743917
N 1.8283437978 -0.3810200078 -0.9867118531
H -1.5052527158 -0.3401923732 -1.2495768637
H 0.7451124235 -2.3561186535 -1.4584262478
H -0.3235036074 0.7266215519 -2.0683121876
H 0.0815462359 1.8737632998 0.1434679801
H -2.198314512 2.0789875191 0.2383443305
H 0.8717377567 0.0008929324 1.6037050248
H -0.6778936374 -0.8383779366 1.3068823724
H 2.531501329 -0.6562300332 -0.3127886638
H 1.9350015419 0.604386898 -1.1804850166
