12
0
C 1.9673992038 -0.4577257525 -0.6185307577
C 0.9375921701 -0.0237453137 0.067126423
C 0.2616967707 0.169956143 1.3409730214
C -0.4018672121 0.5890232604 0.0165533263
C -1.5263247652 -0.1567593285 -0.4873557636
C -2.4621506269 -0.776486195 -0.9058242929
H 2.8267076705 -0.8945312155 -0.1236631824
H 0.5856417252 0.968424912 1.9980366761
H -0.153349845 -0.698304403 1.8387269503
H 1.9841106974 -0.3959357523 -1.7000927733
H -0.4429646063 1.6571208029 -0.1706769889
H -3.2932071822 -1.3261541576 -1.2791136381
