12
0
N 2.0592654746 0.1555283355 -0.0014247401
C 0.6280318401 -0.1322078214 -0.023616563
C 0.1607059576 -1.3975125386 -0.1874249032
N -1.2078566738 -1.0791751244 -0.131652504
C -1.3898558892 0.2486434198 0.0462319469
O -2.6285703573 0.7676083437 0.127068007
N -0.2701390185 0.9070574707 0.1226429073
H 2.3680422634 0.5593972114 0.8826175304
H 2.3483617738 0.7777605655 -0.7558220565
H 2.4916388579 -0.7626958328 -0.1286196631
H -1.9586795836 -1.7401052617 -0.2143825321
H -2.527761645 1.7155632325 0.2469645704
