10
0
O 1.4795566236 0.280385666 1.5982646036
C 1.4208805669 -0.3121324991 0.5570675526
C 0.2220484957 -0.2802440803 -0.3518158745
C -2.0234344395 0.7811019949 -0.3245349249
N -0.8496430648 0.5453739834 0.1888682786
H 2.2673714233 -0.9297054198 0.1991806584
H 0.5469742107 0.0952448589 -1.3276380538
H -2.0658818505 0.2227377839 -1.2837998638
H -0.1194510306 -1.3091222596 -0.5036753368
H -0.6101249347 0.9694379719 1.0782129606
