12
0
O -0.8376363922 1.3294693252 0.2902380036
C -0.541153509 0.0141636346 0.719636343
C -1.3731065443 -1.0286371352 -0.0650847149
C 0.8420872606 -0.4675707125 0.6402308019
C 1.730019276 0.2275092081 -0.120135293
C 2.5646513534 0.8186853987 -0.7852178359
H -0.2681366093 1.5509064018 -0.4519690937
H -0.8579819035 -0.0377104054 1.7664641137
H -1.0405860698 -1.0860890251 -1.1033972019
H -2.4090753807 -0.6922417655 -0.0527559045
H -1.2975447919 -2.0164116792 0.3855143449
H 3.3745333106 1.2448797544 -1.3308305633
