11
0
N 2.2920688089 1.046909581 0.3492662222
C 1.2435059132 0.5568023757 0.2851298581
O -1.8414512628 2.5167255183 1.1502323766
C -1.7423530844 1.4446523921 0.6284814197
C 0.0912177062 -2.3021370775 -0.3376689775
O 0.9139367037 -3.049214939 -0.7808893373
H 3.1931201534 1.4701801452 0.4040154142
H -1.6419033846 1.3313298921 -0.467343085
H -1.7463898729 0.5049209372 1.2123988441
H -0.0785918305 -2.1932432573 0.7500240921
H -0.5469828502 -1.6774245675 -0.9907938273
