13
0
C -1.298463263 0.0460370024 0.5879196831
C 0.050393357 -0.2941475523 0.0322674703
O 0.2427295354 -0.1970680605 -1.3966064692
C 0.9368188682 0.7079076584 -0.5955628033
O 0.6362264607 2.0359639794 -0.6893292184
C 0.7277211461 -1.4960291091 0.6148731577
O 0.4102963463 -2.0062237052 1.6520858503
H -1.2383674245 0.1020528978 1.6745688311
H -1.6743939996 0.9958247791 0.2088591447
H -2.0184101725 -0.7312812852 0.3302195626
H 2.0158622055 0.5835362549 -0.5607132178
H -0.304127373 2.1412669262 -0.8581929826
H 1.5695133134 -1.8815127857 0.0036839915
