14
0
O 0.8971694472 1.6685779691 -1.1094364954
C 1.7167805035 0.924453207 -0.6366354742
C 2.3653909604 -0.992970574 0.7092658669
C 1.3975186291 -0.2169474286 0.2387844252
C -2.6252012521 -0.5314160922 -0.2124257852
C -2.3729256394 0.7485027199 0.0077317369
H 2.7982361849 1.0664250099 -0.8442246897
H 2.1631061117 -1.8379477656 1.3553988051
H 3.4048517618 -0.8013932518 0.4603588953
H 0.3503981119 -0.3807371966 0.4710937691
H -2.0162602836 -1.1213786594 -0.8891704987
H -3.453271685 -1.0419687602 0.2665461576
H -1.544063274 1.2572962336 -0.4729877607
H -2.988853576 1.3364025887 0.6793920478
