16
0
C -1.2131851094 -1.1242898369 -0.610305845
C -0.1114006623 -0.1112309221 -0.7130341685
C -0.8756614251 1.6916832737 1.0203636046
O -0.0362387468 0.540772199 0.9071778302
C 1.2223118002 -0.782775434 -0.6507966018
O 2.2112407853 0.2150930404 -0.3398183112
H -1.0805685281 -1.8946543106 0.1671120519
H -2.1940668523 -0.6617423034 -0.4829323291
H -1.2466990983 -1.6333441467 -1.5795433176
H -0.7418227923 2.330951467 0.1483466405
H -1.9024972969 1.3361835906 1.0586223656
H -0.6352854866 2.2142944665 1.9468132313
H 0.8978648634 0.8221963667 0.8306609945
H 1.3035470624 -1.5894580133 0.1045509947
H 1.3995437007 -1.2216714965 -1.6395378813
H 3.0246927859 -0.2264529402 -0.0893622591
