17
0
C 1.8233390125 0.2941982304 0.0525886773
C 0.3857483072 -0.1766476524 0.0010222975
C 0.1803474189 -1.4801953579 0.7523681237
C -1.034575003 -0.030888742 -1.8902079533
C -1.7058348813 0.7071948306 -0.7573189168
C -0.6501092053 0.8903783813 0.3374911788
O 0.0871331421 -0.4751549897 -1.4343141473
H 1.9618370783 1.1751821176 -0.5753533877
H 2.5005977844 -0.4878932635 -0.2930020571
H 2.0933409661 0.5542553628 1.0779842412
H 0.4548751323 -1.3568710397 1.8015485372
H 0.7998125866 -2.268426841 0.3229723687
H -0.8622663362 -1.800020792 0.7048416543
H -2.5423464947 0.0675501881 -0.4503835555
H -2.1538420478 1.6323892363 -1.119975866
H -0.2048216722 1.8850004405 0.2795238565
H -1.0471817882 0.7599208907 1.3437599488
