12
0
O 1.7927639931 0.3299364133 1.499048418
C 1.8222696193 0.1572762272 0.3126684151
C 0.6216419268 -0.212630055 -0.5184714591
C -0.6449276551 -0.2186682567 0.2933316322
C -1.456894344 1.0108740577 0.3741377759
O -1.8444909722 -0.5353158296 -0.4767268345
H 2.7721008033 0.2557908969 -0.2506690207
H 0.8211473106 -1.1930963775 -0.9691288207
H 0.5424025545 0.5150220679 -1.3347332085
H -0.6084704918 -0.921723008 1.1242462413
H -2.1308978004 0.8862791768 1.2334625765
H -1.7487849441 -0.1655353133 -1.3614917157
