12
0
O 2.5891211962 -1.2382156566 0.0313006762
C 1.4296538889 -0.9715362169 -0.0532877818
C 0.9149213543 0.4459663784 0.2019806157
O 1.5459395038 1.4030292703 0.4983664391
N -0.5418803798 0.4689628379 0.0224916529
C -0.8806649471 0.5728411809 -1.2504971996
C -1.1805827709 0.0402896992 1.0965391602
H 0.6412261289 -1.7007995463 -0.3153042015
H -0.1651932984 1.0116564523 -1.9259770658
H -1.8847197465 0.3211934707 -1.5565913714
H -0.6706324337 0.1057716084 2.0433005139
H -2.2136774956 -0.2623324782 1.0169345622
