12
0
O 0.3331897032 -0.8701960657 2.1330726317
C -0.109425526 -0.5113282205 1.0932990352
C 0.3539088772 -0.613092708 -0.3735074061
N -0.9716075279 -0.0871850012 -0.7624121898
C -1.3663469171 0.2148700239 0.6296088631
C 2.3367093165 0.9538021911 0.0276196641
C 1.5327142431 0.2605269962 -0.7082293252
H 0.5362284102 -1.6305482936 -0.7275990461
H -0.9363205439 0.7170285925 -1.371345983
H -2.3125421403 -0.2288982818 0.9432980132
H -1.3501921151 1.2736382363 0.9086145618
H 1.8304362201 0.3894875308 -1.7573768192
