13
0
C -2.1778483623 0.5039144044 0.1589995201
C -0.7286643359 0.1748006715 0.0290543709
N -0.3996792834 -0.783033036 -0.9351976433
O 0.9653283229 -0.9971315921 -0.7993722464
C 1.3559048282 -0.0650472598 0.0949360103
N 2.6770782596 -0.0114617602 0.2822234765
C 0.350689004 0.7163868133 0.6728460678
H -2.7790092917 -0.3856391308 0.3692147117
H -2.3043780781 1.2127047886 0.9730010856
H -2.5602704373 0.9500739055 -0.7617609407
H 3.0191601585 0.6866804383 0.9143118115
H 3.310109357 -0.6309310016 -0.1865951413
H -0.8635261413 -1.6836492411 -0.9150390827
