12
0
O -2.4230852498 -1.0499487659 0.7534146442
C -1.8043674576 -0.0856137813 0.6016473689
C 0.7457931424 -1.1474110118 -0.7249369401
C 1.1577066153 0.1774407629 -0.1651324002
C 0.337193426 1.108149074 0.3195869354
C -1.1200858943 1.0277937047 0.4519008758
H 1.4580890551 -1.4913865261 -1.4755427149
H 0.6941066766 -1.9202481005 0.0483890538
H 2.2196736191 0.3993191734 -0.1540457488
H 0.7626826676 2.042132264 0.6699925951
H -1.7170899605 1.9303226345 0.4957315112
H -0.2381826398 -1.092393428 -1.1977261803
