11
0
O 2.0074691455 0.603535613 0.3942253446
C 0.8711324442 0.3173425507 0.1763168715
N 0.3126195769 -0.895771296 0.1331884156
C -1.0782726728 -1.1950102349 -0.1637502377
C 0.1417872241 2.5766103804 -0.103549167
O -0.1470326653 1.3058739495 -0.0880206142
H 0.9552831691 -1.6521397207 0.288298197
H -1.2325622494 -2.2597656713 -0.0013652792
H -1.7463931291 -0.6420621706 0.493757302
H 1.2337125347 2.6499404201 0.1129059873
H -1.3278873776 -0.9575018202 -1.1982278197
