13
0
C 2.1732194788 0.043411619 -0.2134161398
C 1.6907958252 -0.7490775703 -1.3342655187
N 1.2885027604 -1.3724652173 -2.20975174
C -1.4838798373 -0.5001542071 -0.1385201904
C -1.8267442812 0.4987489396 0.5739675485
O -2.4699807099 1.6117319876 0.8549173429
N -0.7950408379 -0.2143439857 1.252991079
H 2.4809789756 1.0282843503 -0.5632954969
H 3.026780428 -0.4514196603 0.2488773752
H 1.3685319966 0.1458280756 0.5211388004
H -1.2280697126 -1.0643662324 -1.0126051077
H -3.0023198825 1.8735772522 0.0967825807
H -1.2105652033 -0.8328513515 1.950216467
