13
0
O -1.4056142336 -0.2280634829 -0.2342598443
C -1.2465867941 -1.2573817214 0.7397691237
C -0.7248969344 -1.423419445 -0.6093447913
O 1.8132714194 0.0230917089 1.0248639038
C 1.6959395928 1.2169954006 0.8446267684
N 0.6036125396 1.8137534505 0.3369332261
H -0.1992037721 1.244624927 0.0783879602
H -0.5440870741 -1.0277750237 1.5341466678
H -2.169953987 -1.7493447725 1.027135759
H 0.3432635311 -1.3097244102 -0.7628610646
H -1.261863778 -2.0384526069 -1.3238897555
H 2.5065593282 1.9259898006 1.0924334192
H 0.5766601622 2.8086981751 0.2179006275
