13
0
C -2.1647546096 0.2363052267 -0.6306162226
O -0.859030395 -0.0569988723 -1.0795017063
C 0.1876180839 -0.4383901784 1.1307392675
C 0.1268614018 0.3284626252 -0.1878412023
N 1.4420024129 0.2721485356 -0.8342246572
C 2.1837784464 -0.2911365836 0.0092301505
N 1.4735925949 -0.7078584565 1.1809497789
H -2.2913501561 1.3154305809 -0.4748771057
H -2.3957781042 -0.2850463444 0.3019763746
H -2.845014676 -0.0915268034 -1.4143588763
H -0.0064961192 1.3841042731 0.1286073004
H 3.2478221352 -0.4702038573 -0.0927769796
H 1.9121119852 -1.1993931455 1.9446238781
