15
0
C -0.5994537922 -0.0661603521 -0.9930782998
C -1.0242995828 0.8359006234 0.1673304879
C -1.8767118058 0.2990563862 1.2908071235
C 0.3586254542 0.3945293745 0.0174028496
C 1.5708645913 0.3823559916 0.5039763688
C 2.8054298504 0.0216980267 0.4729722712
O 3.9391358023 -0.2119369784 0.5876396592
H -0.5417613952 0.361078446 -1.9876222466
H 1.872346405 -1.6772114231 -1.7530811763
H -0.8943831814 -1.110157279 -0.9642658468
H -1.2106305489 1.8720249576 -0.1025929831
H -1.6215820806 -0.7396383563 1.509064853
H -1.725305588 0.8784730248 2.2026063075
H -2.9352039657 0.3422136592 1.0276432906
H 2.0245978377 -2.1954091012 -2.2668966589
