14
0
O 2.6018429508 -1.4869921668 0.9316697894
C 2.1488862566 -0.2021495119 0.99077967
C 1.2097637092 0.321233067 0.2511940042
C 0.264535524 0.8607656835 -0.4693646713
C -1.1774719616 0.8599191846 -0.1009282486
C -1.9225834359 -0.4228511993 -0.0442171039
N -1.6110884108 0.3140319399 1.1720057583
H 2.1325603822 -1.9509017357 0.2331330787
H 2.6746316548 0.3729160345 1.7437079747
H 0.5184233126 1.3504876592 -1.4072499089
H -1.7183447451 1.7475898565 -0.4128196542
H -1.3587702439 -1.322906807 -0.2656091742
H -2.9721258787 -0.4534527234 -0.3132597856
H -0.8169441143 -0.1028382814 1.647998271
