19
0
C -2.8019484494 0.0725399507 -0.0289659007
C -1.3138901715 0.3245230673 0.1738016156
C -0.554409086 -0.9256180604 0.5997743273
C 0.9434923278 -0.6951973056 0.8205481856
C 1.6852286759 -0.3338721755 -0.429890152
C 2.3260727814 0.8110236111 -0.6002139166
O 2.9879395122 1.1132776926 -1.7542642562
H -2.9706477601 -0.6809698611 -0.8025278426
H -3.2706279141 -0.2900411016 0.8895036854
H -3.3246625718 0.9811820447 -0.3334223374
H -1.1713185931 1.1038550635 0.9311220134
H -0.8766415948 0.7168656151 -0.7489105775
H -0.6915859058 -1.7075323023 -0.1562956729
H -0.9921440538 -1.317449586 1.5242207515
H 1.0837313467 0.09164683 1.5697948409
H 1.6879548356 -1.0510227785 -1.2468638058
H 1.3770706029 -1.6053698156 1.247949347
H 2.3557021093 1.5702165969 0.1784435703
H 3.3963849083 1.9746765149 -1.6747108753
