15
0
N 1.5534719817 -0.0420693933 -1.4244625625
C 1.684056547 -0.41329321 -0.1261502849
O 2.7046061027 -0.8663132499 0.3364921949
C 0.4600777123 -0.231893118 0.7662951781
N -0.5798873624 0.6575137754 0.2717348583
C -2.0600506375 0.6010750293 0.7315677548
C -1.6350873201 0.1464790355 -0.6207091679
H 2.325587628 -0.2295390629 -2.0400995606
H 0.6603668698 0.1766130736 -1.8258755894
H 0.0110041617 -1.2125477296 0.9328719064
H 0.8145910538 0.1307998714 1.7311982339
H -2.0921128385 -0.2712991373 1.3962165159
H -0.2669337815 1.6027925307 0.1052592487
H -1.4662382818 -0.8987183634 -0.8859208402
H -1.8459108352 0.7761359484 -1.4837368855
