13
0
C -1.1193454678 -0.644796844 0.0151810688
O 0.0228183634 -1.3612284397 -0.3910864719
C 1.1398147049 -0.7965833626 0.3466425669
C 0.8681510986 0.6585966388 0.625238413
N 0.2894815421 1.2136423792 -0.7265395683
C -0.5883469246 0.7330366524 0.355744016
H -1.5794791913 -1.072077911 0.9167988148
H -1.8511053429 -0.672451829 -0.7968841792
H 1.2374054677 -1.3064579439 1.31170509
H 2.0368640194 -0.9880141633 -0.2436811245
H 0.404477044 2.2025562274 -0.867266548
H 0.2951119352 0.6436804278 -1.5637350944
H -1.2534822489 1.4694741679 0.7933810168
