17
0
C 2.0974483989 1.0428865424 -0.4079618726
O 1.1268663065 0.3262021915 0.3210128264
C 0.3403834269 -0.4993259209 -0.5049531851
C -0.6571178465 -1.2270408787 0.3408757251
O -1.873463336 -0.5517875248 0.6355524656
C -1.9239363804 -1.6790773792 -0.2229794533
O -1.0868576401 2.312719992 0.2599545094
H 2.6717161525 1.6314477832 0.3053511794
H 1.6265611825 1.7157528536 -1.1343153896
H 2.7744862037 0.3624715756 -0.938606996
H -0.1845787226 0.1000426764 -1.2610064488
H 0.9777453911 -1.2303968037 -1.0240020289
H -0.2395457891 -1.7660191295 1.1876560328
H -1.7474341966 1.6163316323 0.3266780849
H -2.4133617154 -2.5547826923 0.1909674772
H -2.1540290593 -1.4586562872 -1.2618849838
H -0.2984513762 1.8891213693 0.6157120572
