13
0
C -1.5500944035 0.5299802676 -0.7321478844
O -0.6712666942 0.3869226324 0.3742151285
C 0.5765750747 -0.0673185176 0.1977420173
N 1.0160373267 -0.2068828013 -1.0825779524
N 1.3386428142 -0.368899027 1.1786207084
C 0.8043601808 -0.4992191087 2.4486658547
O 1.4484504197 -0.3743634004 3.4552410666
H -2.5284663726 0.7385425244 -0.3074771006
H -1.5941359629 -0.3866819791 -1.3226248478
H -1.2578749054 1.3737909823 -1.3638910819
H 0.6528902819 0.3863839502 -1.8063518474
H 1.9914714142 -0.4414308658 -1.1497542469
H -0.2661571738 -0.780337657 2.4918301861
