9
0
O -3.6860798979 0.3145268269 -1.2243152736
C -2.8090388055 0.0245884695 -0.5160761822
N 2.4898685975 1.1308510956 0.2149352858
C 1.783615391 0.1516087345 0.1504582361
N 0.9768398001 -0.7491679327 -0.0306374448
N -1.9897781784 -0.2776493029 0.3108877394
H 2.8308975556 1.4702060841 1.1013311913
H 1.3278155512 -1.6838320959 -0.1850031323
H -0.9949920135 -0.433443879 0.1739385804
