14
0
C -1.5762821092 0.2545920026 0.7046386089
N -0.5498102302 0.24209922 -0.3489505094
C -0.0521958336 -1.0634699055 -0.7405883332
C 1.2726934609 -1.0843302831 -0.5204131514
C 1.7858192997 0.138827347 0.0063241657
C 0.7897187019 1.0736277056 0.1687915677
O 0.5792982629 2.2013407171 0.5304209814
H -2.5079582331 -0.1708147036 0.3325382795
H -1.7248578007 1.2862068139 1.0223879433
H -1.2071419165 -0.3386623007 1.5390173742
H -0.7310520465 -1.8144414714 -1.1088815474
H 1.888285451 -1.9502361714 -0.7239854742
H 2.8129440263 0.3380518454 0.2610709072
H -0.8751080328 0.7787101844 -1.1497048123
