11
0
N -1.9343611383 -0.5902140798 -0.294913009
C -0.7239962923 -0.2367500415 -0.1159985615
C 0.5373808892 -0.9251252307 -0.2453285433
N 1.473301746 -0.034965317 0.081906647
N 1.1538877069 1.15910875 0.4203167537
C -0.3019755534 1.1567963384 0.3252383144
H -0.7352993445 1.4209432297 1.2931878206
H -1.9909730732 -1.5618110066 -0.589833724
H 0.7853079662 -1.9332264345 -0.5290873485
H 2.4624380312 -0.2545181959 0.0788926788
H -0.6234229377 1.9162679877 -0.3922250283
