19
0
C 1.7247886506 -0.2135742096 -0.9356382287
C 1.4235739536 0.318780843 0.4235409399
O 2.4542813967 0.0543737131 1.2770898904
C 0.3143954867 0.9512984132 0.8033664284
C -0.867755966 1.2539571658 -0.0827736764
C -1.836613434 0.107950042 -0.1687261246
C -2.225637235 -0.4717981278 -1.2936387185
H 0.9271185384 0.0008648404 -1.6418940582
H 1.8554851513 -1.2964902828 -0.8803083014
H 2.6592590402 0.2123163916 -1.3059867208
H 0.0310246904 -1.9966543062 1.4383797394
H 2.2348979132 0.3886755825 2.1504656532
H 0.2326355757 1.2518282536 1.8459059738
H -0.5463871708 1.5309033375 -1.0896121249
H -1.385246663 2.1293891791 0.320767289
H -2.2154942998 -0.2663988981 0.7798031346
H -2.9162924625 -1.3061082786 -1.2936235086
H 0.0259360863 -2.6590870607 1.7820345211
H -1.8645162519 -0.1318175981 -2.2594041078
