17
0
C -2.1228593118 0.5750113725 -0.2249850441
C -1.3111959426 -0.6923595968 -0.1928410288
C 0.1435169233 -0.8153329206 -0.7046677146
C 1.2198699215 0.2652742309 -0.8019593621
C 1.8939594742 0.1950416004 0.6004407193
C 0.7007854142 -0.175929868 1.4791573293
C -0.1823487854 -0.8200600401 0.7298109562
H -2.6277463751 0.678522651 -1.1877299878
H -2.8825609601 0.5697500175 0.5587933229
H -1.4875286118 1.4477638985 -0.0672533833
H -1.8793812081 -1.5903069769 -0.42137432
H 0.3414059455 -1.7658144826 -1.1921020965
H 0.7804159142 1.2572485021 -0.9458786281
H 1.9134102052 0.0906099947 -1.6264764476
H 2.3432983083 1.1428605843 0.9063117931
H 0.5593234314 0.1913419685 2.4886320835
H 2.688227657 -0.5598969354 0.6279388085
