15
0
C 1.4777291256 -0.0712724117 -1.0898152056
O 0.4290851943 -0.3750010038 -0.1740170116
C -0.1959036869 1.1301238058 0.4278966283
C -0.6375277882 -1.0756269535 -0.8119257093
C -0.9081044502 0.7011490328 1.6854167728
H 1.8143000695 -0.995079229 -1.5619942576
H 2.2882134283 0.3684908698 -0.5142137764
H 1.1164338082 0.6458936341 -1.8304833426
H 0.7939943963 1.4937550005 0.7500795746
H -1.3722308234 -1.3101033661 -0.0473861424
H -0.2420818571 -1.9969957298 -1.2421978526
H -1.0867505323 -0.4337746238 -1.5725177934
H -1.0937071977 1.6399253313 2.219919754
H -0.3485721654 0.0473886179 2.3691840296
H -1.8931355212 0.2604590255 1.5038483323
