18
0
C 1.8881851396 1.3121228706 -0.3139300661
C 1.4547881692 -0.0561089976 0.2636168931
C 0.4302312947 -0.5283821389 -0.691157489
C -1.1603579941 -1.8058618871 0.3997046589
C -0.9739081673 -0.4003678983 -0.2373319909
C -1.3982840421 0.6995256457 0.7380946771
H 2.2726822059 1.2008469435 -1.3271053221
H 1.060220707 2.0219574113 -0.3386074147
H 2.6707808756 1.732719783 0.3173120106
H 1.1444561616 0.0794374793 1.308332296
H 2.3277924706 -0.712029586 0.2350902081
H -0.8799442804 -2.6041088983 -0.2872502252
H -0.5709298426 -1.9051730987 1.3134112014
H -2.2131160317 -1.9247691126 0.6585773566
H -1.6297891893 -0.3734002407 -1.1125701469
H -2.4589634514 0.5937940064 0.9767418366
H -1.2594781166 1.6907449617 0.3026770635
H -0.8469239085 0.6622387567 1.6790244531
