15
0
C -1.4041975249 -1.0500320381 0.4484310039
C -0.3399670489 -0.0712306178 0.0753461078
C -0.4930097533 1.4015362527 0.1252677767
N 0.4332111183 0.7808571253 1.0576199374
C 1.6827000481 0.5531101852 0.2623047921
C 0.9267843667 -0.3841903428 -0.6554356236
N 1.3140188388 -1.2208466541 -1.5079093362
H -2.0442536494 -0.6365563431 1.2281544893
H -0.9660622359 -1.9783725778 0.8194476107
H -2.0314204039 -1.2852922929 -0.414459289
H 0.5372890005 -1.7916621712 -1.8395488688
H -0.1002455527 2.0224139695 -0.6744850617
H -1.3979149568 1.7746993781 0.5902343726
H 2.1122807634 1.460766665 -0.1652806042
H 2.43407799 0.0303294622 0.8529986931
