16
0
C 2.1940895783 0.0392111202 0.1791866678
C 0.7068468558 0.0698649292 0.3048260803
C -0.107619168 1.2807706904 0.1150301752
C -1.4003551915 0.9850972155 0.288660958
C -1.534449549 -0.4696149228 0.6155034285
C -0.1169727519 -0.9479892306 0.5943178929
H 2.5840582312 -0.9648931853 0.3464674881
H 2.5086904105 0.3660873242 -0.8151745812
H 2.6617893745 0.7123471808 0.9021068404
H 0.2973158004 2.2541497458 -0.1322630876
H -2.2354709614 1.6670415153 0.2098438076
H -0.5853694727 -0.753852235 -2.2291884109
H -2.0088527918 -0.6246933934 1.5913830313
H -2.1592070491 -0.9951974306 -0.116372155
H -0.94737616 -0.781068627 -2.8815301885
H 0.1774988444 -1.9711316968 0.7871870531
