11
0
N 0.8219976575 0.6568375559 0.0639123975
C 1.3116590212 -0.0138635378 -1.0324386071
O 0.7792934991 -0.922684346 -1.6090177406
C -1.3202369498 -0.5880600862 0.3161843728
C -0.3788641715 0.483149801 0.7726195922
O -0.5859784229 1.2086114584 1.71141123
H 1.3910560838 1.4014973648 0.4378317695
H 2.2916844811 0.390226056 -1.3411642011
H -2.1917076318 -0.5685672581 0.9651653889
H -0.8349021898 -1.5631803218 0.3525253075
H -1.608997377 -0.4267136861 -0.7221255096
