15
0
C 1.6707781636 0.1642598297 -0.8070859574
C 0.4307015527 1.0329901384 -0.8240564544
C -0.4607654539 -0.8287080948 1.8341370174
C -0.8774811375 -0.123143149 0.7843947642
O -0.2503984291 1.0356899567 0.4288951881
N -1.9963339832 -0.4144344647 0.0198580535
H 2.1804274956 0.2227789732 -1.7708943218
H 1.4163331124 -0.8793900462 -0.6159529746
H 2.3595263565 0.494745728 -0.0284803367
H 0.6860392243 2.077864213 -1.001347414
H -0.2449591828 0.7180876984 -1.6282804439
H -1.0245226224 -1.6768243962 2.1961575542
H 0.4353580565 -0.528850605 2.3545496941
H -2.173042523 0.1784277526 -0.7693442456
H -2.2292186294 -1.3812835341 -0.1111331234
