21
0
C -2.7547302111 -0.0006045616 -0.7660292419
C -2.0886643458 -0.0667340888 0.3766527401
C -1.1657082269 -1.1788282059 0.7746058755
C 0.253418102 -0.7059729297 1.0968802455
C 0.9324900364 -0.0530370895 -0.0883444223
O 2.2610522327 0.2530221376 0.2539731284
C 2.95140517 0.8855046656 -0.7888525754
H -2.6665145837 -0.7801717528 -1.5163195661
H -0.4153682633 1.2795655548 -3.3338922783
H -3.4140365744 0.8280817321 -0.9939115707
H -2.2047772342 0.7377976973 1.1012705869
H -1.5736550681 -1.6756629261 1.6604910319
H -1.1368103292 -1.9296969968 -0.0209518168
H -0.7168514638 1.0102276415 -2.7071812689
H 0.8584679369 -1.5564219293 1.4199959853
H 0.2355864858 0.0028287041 1.9300202901
H 0.9114551056 -0.7290911468 -0.9588241217
H 0.3976909912 0.8614140526 -0.383680358
H 2.996706658 0.2509765626 -1.6844359771
H 3.9657111005 1.0822152009 -0.4435931895
H 2.4781494821 1.8369936773 -1.0665264979
