12
0
C -1.6485112729 -0.3055767106 0.4561392945
C -0.5271481996 -0.045324406 -0.5107759805
C 0.5778819808 0.9139415215 -0.1367899922
C 1.3715546941 -0.1620877696 -0.1448353952
O 2.633599794 -0.5232768562 0.0444883298
O 0.485735519 -1.1312220894 -0.4663068101
H -1.2548156324 -0.4516615162 1.4625933678
H -2.2185186808 -1.1888449227 0.1620176631
H -2.3263760115 0.5506012861 0.4688503815
H -0.8789687692 0.0299253769 -1.5421180672
H 3.1559146283 0.2552826891 0.2519144912
H 0.6667119503 1.970593397 0.0339677173
