14
0
C 1.3332546164 1.1688428286 0.4698911013
C 0.3951575572 -2.3602887048 -0.6914525834
O -0.1156400608 -1.7666604042 0.3284519466
C -1.2641952749 -0.8581342927 0.228003936
O -0.9567718291 0.3718217717 0.7109472359
C -0.0734187256 1.1597498614 -0.0905331866
H 1.3269791973 1.5349375232 1.4970385767
H 1.9644523498 1.8299777545 -0.1272809101
H -0.2139196176 -2.0537404264 -1.5910787629
H 1.7731103212 0.1718015497 0.4627589432
H -2.0396109084 -1.2856823706 0.8615427754
H -1.5516662919 -0.8560030406 -0.8340165657
H -0.4933000818 2.1673296267 -0.0957905027
H -0.086211252 0.7876573237 -1.1218740034
