14
0
C 1.2480149576 0.4334491033 -0.9315940147
C 0.6987846379 0.2556458738 0.4486732843
C -0.7087368251 0.6564590623 0.7961628009
O -1.5932103823 0.4598271637 -0.3325611724
C -2.426643231 -0.5182711961 -0.4076003599
C 0.9908984753 -0.9458111559 -0.3950304758
H 0.5734756156 0.7957686213 -1.6959400649
H 2.2721841861 0.7663156168 -1.0322263508
H 1.38464829 0.4432513376 1.2675728237
H -0.7654398357 1.7194043114 1.0358159787
H -1.09841785 0.0681895175 1.6328157667
H 0.1570911593 -1.4905726141 -0.8210593085
H -2.3446233131 -1.0940692092 0.5568507288
H 1.8358731152 -1.5635494326 -0.1226016362
