11
0
O 1.4737267605 0.1823492603 1.9424786913
C 0.7554929929 0.0582289485 1.0061103556
C 0.6211845926 -1.0129681741 -0.1003140121
C -0.0991332297 1.1639902433 -0.976069361
N -0.5513989883 -0.2558659011 -0.5963895086
C -0.4411568738 0.7931403263 0.4505114587
H 1.4136861843 -1.0900824788 -0.8401694168
H 0.3458149528 -1.9819955513 0.3199442837
H -1.0043948201 1.63589298 -1.3798582914
H -1.4319833168 -0.6900948594 -0.8250615395
H -1.2992762544 1.1212802062 1.02765634
