15
0
N 1.8535463832 -1.0030074005 0.6416943288
C 0.967307734 0.1189998239 0.8125962363
C 0.6717069716 1.0926048057 -0.2685884833
N 1.147796973 2.0010520517 -0.9918630238
C -0.3551868705 0.1406313116 0.0837460859
C -1.7966982378 0.0690112785 0.4261098375
C -1.2136822099 -0.8619767191 -0.6016679697
H 2.816259193 -0.7054078793 0.7382909078
H 1.754809377 -1.3852801573 -0.2905967826
H 0.9448843899 0.4980493103 1.83136762
H 0.464112641 2.3032954135 -1.6865739423
H -2.0579513947 -0.3453654539 1.3916038713
H -2.4356506598 0.8730481529 0.0833125845
H -1.4554621851 -0.6926216738 -1.6433813492
H -1.0791071049 -1.8996058641 -0.3216139214
