14
0
C 1.8609276485 0.3987454919 0.6479646797
C 2.0695169042 -0.8865571962 1.3900567765
C -1.4081015291 0.5441369887 -1.4314540914
C -2.0500011779 0.1968934426 -0.1699804904
O -1.6818473554 -0.8082073096 -1.099546268
C 1.1691786247 -0.9260145721 0.4745443844
H 1.3385320509 1.2234430091 1.133297025
H 2.5973443667 0.7214359941 -0.0874585461
H 2.6270162848 -1.3799826931 2.1660003591
H -2.0037317925 0.9471040506 -2.2447909965
H -0.3560064904 0.8139145277 -1.4332908738
H -3.1189240594 0.3452784187 -0.050483354
H -1.4659405122 0.2152188161 0.7462687619
H 0.414321037 -1.4568389685 -0.0819703664
