21
0
C -0.931660001 0.5601230752 -1.3797643247
C -1.5148419107 -0.6167179325 -0.6530406095
C -2.9807557507 -0.5310991154 -0.3417203666
C -0.7783374953 -1.6670556924 -0.310654642
C 2.3981204857 0.1147134003 0.6210652599
C 3.0539319739 0.4251606757 -0.4869663034
C 1.443327244 1.0125635236 1.3389578585
H -1.4186391631 0.6919369707 -2.3504372937
H -1.0948906943 1.483937006 -0.816620333
H 0.1394908125 0.4403469805 -1.5422731664
H 0.4525400368 0.5523057886 1.3875975742
H -3.1914766233 0.3352857917 0.2921013723
H -3.56365103 -0.401317785 -1.2581323024
H -3.3390853409 -1.4250629361 0.1684352674
H -1.2099571297 -2.5159634526 0.2075203636
H 0.2800525279 -1.7119574337 -0.5419634353
H 2.5453675205 -0.8709348974 1.0571972694
H 3.7304791603 -0.275254575 -0.961400491
H 2.9399250854 1.3957317105 -0.959825546
H 1.3533661066 1.9783833905 0.8395812693
H 1.7682601853 1.1854625066 2.3681065796
