11
0
O -2.3090061055 3.4153021188 -1.6917785354
C -2.4704421596 2.6339040877 -0.9015015687
O 0.1604913607 1.0954497786 -0.6504145694
C -0.2260648846 0.3916831293 0.2399200575
C 0.5917415858 -0.7015843814 0.8530760571
C 1.2740991451 -1.6498057719 -0.040919153
O 1.984712778 -0.653412901 0.649667236
H 0.2691110267 -1.0415568276 1.8344082289
H -1.2487648043 0.4998653364 0.6536466335
H 1.1880357838 -1.4965645617 -1.1127915125
H 1.433937274 -2.6690900071 0.2978471262
