17
0
C 2.383394371 1.4334592734 -0.294197062
C 0.560182927 -1.0381031247 0.3818733468
C -0.5356538523 -1.4530726572 1.0062103773
C -1.7863428265 -0.7875072031 0.5032380843
C -1.2922598742 0.0064723453 -0.7206025962
C 0.2353915748 0.0315158807 -0.6161449915
O 0.7047953202 1.3324115751 -0.1319733925
H 2.4795494896 2.4055873621 0.2209337537
H 2.3724818153 1.7213018019 -1.3594313312
H 1.5806499402 -1.3355235676 0.5760240831
H -0.547604746 -2.1852762074 1.8048575652
H -2.2241392425 -0.148274879 1.2765066212
H -2.5564204982 -1.5140227717 0.2361178885
H -1.5696234169 -0.5132064081 -1.6383971043
H -1.7008057194 1.0148774339 -0.7852713073
H 0.7459308417 -0.0706578009 -1.5709057485
H 0.6034608966 1.3287609474 0.8271488132
