16
0
C 1.8699401818 -0.2606802757 -1.0369849197
C 0.9955207384 -0.2357574588 0.1870846086
C 0.78783031 1.1097123971 0.8190358735
N 0.422798737 -1.2505584202 0.6889704006
C -2.7944480404 -0.3738083651 0.5913604553
C -2.2891819907 0.0992763036 -0.5156196567
O -1.8361534916 0.5207139419 -1.4951237926
H 2.8242720236 0.2339896933 -0.8433519399
H 1.3803364638 0.2887438569 -1.8452121285
H 2.0607227993 -1.2795333918 -1.3740649193
H 0.4040849359 1.8206200565 0.0830384501
H 1.7386902092 1.5063283423 1.1841740748
H 0.0887612357 1.0330686191 1.6488718916
H 0.6513440515 -2.0918050226 0.1615672273
H -3.8348755432 -0.2027824757 0.8185272065
H -2.1345306202 -0.9285528005 1.2436611686
