15
0
C 1.1306720293 -0.268651241 0.8668934777
C 0.5054367748 0.4984194302 -1.3534458431
N -0.0033954495 -0.005667325 -0.0310846161
C -0.8321004456 -1.2121110135 -0.2066601779
C -0.7872428806 1.1565137767 0.3948808811
O -1.9818103918 1.2039685294 0.3437181528
H 1.7955646416 -0.9579418428 0.3480917862
H 0.7728271627 -0.6828524563 1.8096723082
H 1.6631374761 0.6643673571 1.0440470925
H -0.3552667725 0.8050133775 -1.9465851196
H 1.1944281181 1.3220252636 -1.1620463297
H -0.1940437173 -1.9789592376 -0.6379146408
H -1.6436845067 -0.9795911061 -0.8884177402
H -1.2407616325 -1.5203957578 0.7558559004
H -0.1205944062 1.9659682456 0.7184018685
