9
0
O 2.0502628314 0.1422306773 0.3253655951
C 0.9866469928 -0.6238184833 0.3769498112
C -0.1833398361 0.2720046932 0.3836586696
C -1.2371217794 -0.087100968 -0.5889654907
O -1.4110085602 -0.3202861939 0.7769983069
H 2.8287767515 -0.4228807797 0.2867389354
H -0.0673473102 1.3211416059 0.6564784056
H -1.8184612334 0.7237084708 -1.0185124227
H -1.1080918564 -0.9735250223 -1.2025578104
