11
0
N 0.6411293471 0.9136620982 0.6567573582
C 0.671796948 0.3613960888 -0.6980713298
O 0.42853942 -1.0328214446 -0.5731590931
C -0.7240529436 -0.9833897497 0.2867450725
C -0.775865543 0.5468880285 0.4349937709
O -0.6075449299 0.9259391813 -0.9455026978
H 1.1287973969 0.3270532648 1.3292969373
H 1.4704700305 0.5701538912 -1.4025513284
H -0.5379406286 -1.5179429159 1.2204813587
H -1.5983718696 -1.3917442458 -0.2199927283
H -1.5717782279 1.0421968031 0.9842146799
