11
0
C 1.0415212849 1.3252062589 0.3156637321
C 1.7010000291 0.1894281063 0.1383394277
O -2.9788440505 -1.5565718376 -0.7681319996
C -1.9495475843 -0.9956404058 -0.5642532227
O -1.3769662175 -0.9362049315 0.6419280454
H 0.6071328303 1.8666430987 -0.5175713517
H 0.9224637756 1.7665520324 1.2988887132
H 1.8324982515 -0.2446631089 -0.8467866588
H 2.1480889255 -0.3439325246 0.9697264569
H -1.374758478 -0.4735464315 -1.3512100293
H -0.5492517669 -0.4353292563 0.5847368867
