15
0
C -0.9676369554 1.2002602928 -0.0410789735
C -0.1692644352 -0.0610503231 0.2405697793
C 1.2030662281 -0.0621580807 -0.4539486176
C 2.0356252027 1.0605015323 -0.0338734619
N 2.6693344438 1.9513560106 0.3125197729
C -1.0234308566 -2.4145361832 0.3766755082
N -0.9137515575 -1.250771397 -0.1964361657
H -0.4310328634 2.0821630107 0.308825696
H -1.1454121921 1.3212928975 -1.1134375941
H -1.9318561095 1.160809171 0.4657964533
H 1.0755148899 -0.0120445209 -1.538913574
H 1.7294876039 -0.9916840615 -0.2292866604
H -0.0157690594 -0.175714122 1.3152036266
H -0.4376838066 -2.3568499517 1.3178032532
H -1.3975375327 -1.1252022749 -1.0791180423
