14
0
C 1.9730506593 0.6587575062 0.0971362364
N 1.271919789 -0.2269781283 -0.4828990994
C -0.0378743025 -0.5485518938 -0.134000329
N -0.4750973944 -1.8811314103 -0.4039741424
C -0.9883496953 0.3370719364 0.2594110084
O -0.803914535 1.665937205 0.3986542758
N -2.2774171862 -0.0240581822 0.5405206466
H 1.6560733307 1.2128112277 0.9876046573
H 0.0463480245 1.9060112853 0.0157734697
H 2.9794921459 0.8466516638 -0.2685856244
H -0.0131888694 -2.5471305705 0.2014719337
H -0.2457776662 -2.1380246763 -1.3567871923
H -2.4919193909 -0.9633220428 0.2427838879
H -2.9686999098 0.6775600797 0.3335582718
