14
0
O -1.708286585 1.5805674053 1.7163673749
C -0.0935439796 0.819949858 -0.5453903048
C -0.7504450658 -0.4457277696 -1.0255667888
C 0.1439636676 -0.8306413588 0.1059460447
C 1.5366084775 -1.0235412184 -0.3930083868
C 1.2152471135 0.4222443754 -0.2062200029
H -2.3812815751 2.252228598 1.6049818871
H -1.177764254 1.6007067545 0.8894406667
H -0.4465033785 -0.9057153847 -1.9648487312
H -1.8243623021 -0.457141001 -0.8777849663
H -0.1703293372 -1.0022768098 1.1242479554
H 1.6116502312 -1.4384447996 -1.3933359027
H 2.2727329933 -1.4075635608 0.3034450119
H 1.8034339943 1.0189359115 0.4836101429
