13
0
C 1.2818425563 -1.5564153299 0.5872232616
C 0.2050622057 1.9472666677 -0.1525282925
C 0.7221517704 -0.8881655092 -0.4073372986
C -0.6396366521 -0.3073887108 -0.3327082892
N -1.2270333979 0.1716081913 0.8416269354
C -0.9942031516 1.2277086317 -0.1954259909
H 2.2540663597 -2.0180624588 0.4749398614
H 0.7966284087 -1.6625383322 1.5511893913
H 0.1281556804 2.7864965919 -0.8661661163
H 1.2198293347 -0.8135864466 -1.3681852605
H -1.3431895852 -0.7360479388 -1.0431933867
H -0.5030227355 0.3040760528 1.5452240744
H -1.9125227937 1.5064695907 -0.7064158894
