16
0
C -1.5430911897 -0.6069300258 -0.3775334481
C -0.4508868189 -1.3672053951 0.3201156904
O 0.9591859158 1.9349656561 -1.8704868027
C 0.2757447944 -0.8072871449 1.4763035784
N 0.9122914393 -0.8650686484 0.1587849728
C 1.1371613587 2.0017267104 -0.5490291684
O 0.3122677717 2.3935071721 0.2264224882
H -2.5187674172 -0.8649530921 0.0398204114
H -1.5568719656 -0.8397501305 -1.4447055287
H -1.3931128565 0.4667425656 -0.2569904552
H -0.5653922749 -2.448210475 0.3122510876
H 0.0549963674 2.2229176344 -2.0539519425
H 0.0394671898 0.1965669564 1.8113730059
H 0.6224460926 -1.4855824335 2.2478429121
H 1.5743412763 -1.628657228 0.1122666711
H 2.1461523171 1.6728388783 -0.2839874724
