14
0
O -0.583499537 -1.5867304824 0.5411688656
C -0.6781756152 -0.4246383027 -0.2493726551
C -1.4184583587 0.8131380384 0.3138418817
N -0.2423959248 1.6305819775 -0.0591526064
C 0.5441818216 0.4504984792 -0.2016117549
C 1.8381700829 0.1786416872 -0.1734467553
O 2.3451742941 -1.0883943253 -0.2696826812
H -1.3072958853 -2.1772513592 0.3252712294
H -0.9859768876 -0.6710188849 -1.2709307478
H -1.5618251869 0.7043661452 1.3927268459
H -2.3504943137 1.1172082024 -0.165245792
H 0.0678089603 2.3254942462 0.6039629208
H 1.6342765566 -1.7113225939 -0.0837674506
H 2.6038639936 0.9362861723 -0.0640943002
