14
0
C 2.1685792438 -0.1258474031 -0.4503479888
C 0.7178541156 -0.0215048708 -0.0811058228
C -0.2912053868 -0.3148374595 -0.9934454562
C -1.8917208025 0.2114381076 0.6909721849
C -1.6134258841 -0.1962769297 -0.6018541548
N 0.448706391 0.3711667829 1.1647472979
C -0.8220385054 0.481291651 1.5305942864
H 2.3009827166 -0.485613593 -1.4706319703
H 2.6810406061 -0.8044401499 0.2328261282
H 2.6482621496 0.8499797737 -0.3582820062
H -0.0376431316 -0.6305816129 -1.9981152037
H -2.9089123057 0.3192733686 1.0450110345
H -2.4136475516 -0.4191103073 -1.2980111795
H -0.996346655 0.8029466424 2.5533668502
