13
0
C 1.9842125963 -0.1814140371 0.1589194902
C 0.5325509105 -0.0634578891 -0.1399959127
N -0.0940006646 0.9978246018 -0.3097678159
C -1.5002048393 1.0577245338 -0.6343664764
C -1.0303585293 -1.7584662334 0.4963895571
O -0.0669081679 -1.3550602168 -0.2771586261
H 2.1276588716 -0.6673792641 1.1262412126
H 2.4358409251 0.8065151359 0.172956819
H 2.4687394354 -0.8030700011 -0.5955418841
H -2.0377971295 1.4753715369 0.2185139162
H -1.627400873 1.7508852246 -1.4660846589
H -1.9569662706 0.0985496775 -0.9016446326
H -1.1848112646 -0.954817069 1.2645620117
