16
0
C 3.3600067567 0.5825172991 0.3226384104
C 2.0514845584 0.1014443555 -0.0987205009
C 0.9695245609 -0.2990487433 -0.4404398858
C -0.2831913421 -0.802313357 -0.8600439011
N -1.3854375293 -0.1500564049 -0.623577554
C -2.6860561901 0.028846324 -0.6406147232
C -1.839757908 1.1624880571 -0.2010732211
H 3.3709496776 0.8010071989 1.3921062954
H 3.6404881877 1.4909538879 -0.2139148036
H 4.1222262436 -0.1733743468 0.1267030824
H -0.3668639145 -1.7544478509 -1.3658015696
H -1.8959228257 -2.5769976143 1.2318807754
H -2.4097342356 -2.0642087467 1.050157402
H -3.3922519328 -0.1751911486 -1.4284119453
H -1.5352669966 1.9671631004 -0.8715196885
H -1.7611631102 1.3888449897 0.8588118275
