13
0
C -0.7418693013 1.0970292284 -0.118913051
C -1.3850570364 -0.2653101127 -0.0541032602
C 0.7850670915 -0.5140222806 0.6834234524
C 1.4516518554 0.0490029202 -0.5153183557
N 0.6437465285 0.9067525963 0.3359047379
C -0.530620522 -1.1578144557 0.4269605928
H -1.242899289 1.8107586592 0.5419415679
H -0.7554936113 1.5275118871 -1.124900156
H -2.4002265668 -0.4647161849 -0.372282846
H 1.3556871962 -0.7639328588 1.5709251782
H 2.5123951048 0.2717818641 -0.498471284
H 1.0528895441 -0.2508288914 -1.4805661455
H -0.7285539939 -2.2072393711 0.5988975691
