20
0
C 1.9330376691 -1.2042436403 -1.1239353748
C 1.3094551384 0.1468655684 -0.9733061163
C 1.1655622254 0.7989459107 0.1718516826
C 0.5239109953 2.1416966096 0.3216941129
C -2.3117249832 -0.5730858878 -0.4949082435
C -1.7984583678 -1.5959608917 0.1672346817
H 2.2811677437 -1.5911217847 -0.1645396112
H 1.2184508262 -1.9190816908 -1.5416092072
H 2.7868309187 -1.1718322127 -1.8057212714
H 0.9416278332 0.6113916188 -1.8870877344
H -0.9689558597 0.3364723801 3.2408553053
H 1.5315424945 0.3344986028 1.0862889911
H -0.3468427979 2.0868859223 0.9807763459
H 1.2150265395 2.8625769298 0.7660860067
H 0.1960524226 2.5355688235 -0.6420215263
H -1.6872572755 0.2494763658 -0.8249110828
H -3.3684098768 -0.5178677137 -0.7313245126
H -2.4118661449 -2.4242163281 0.5036914181
H -0.7395457442 -1.6396046061 0.3971930701
H -1.2465097568 0.0543260243 2.6085350661
