16
0
C 1.8473127218 -0.6083447613 -0.4569650144
C 1.3333636648 -0.7679038427 0.9376638751
C -1.2305265981 1.9184626258 -0.1487971336
C -1.7081832168 0.7514709215 -0.557949325
O -2.6451284114 0.5506671166 -1.5133176192
C 0.5891259278 -1.7765680057 1.3659939468
H 1.4607819786 0.3107544098 -0.9055522432
H 1.5520331858 -1.446996581 -1.0891774017
H 2.937910032 -0.537073955 -0.4656752824
H 1.5969258656 0.0202203835 1.6397219911
H -1.5691067495 2.8620073072 -0.5628906218
H -0.4833670184 1.9443746318 0.6310830452
H -1.3657877477 -0.1883509247 -0.1398149488
H -2.9329366431 1.3986822845 -1.8621285542
H 0.2418391233 -1.8304235631 2.3906183275
H 0.3024598851 -2.5882690472 0.7046179586
