11
0
O -0.4187790527 3.0292252839 2.3108167062
C -0.0982567619 2.4866211863 1.3351842802
C -1.0313590182 -0.8470181189 -1.1702197392
C 0.0349397741 -1.2459747342 -0.5379519401
C 1.1010362236 -1.6290527646 0.0957603319
N 0.3298656197 2.0166193181 0.3103342568
H -0.9827051544 -0.5449902302 -2.2101957621
H -1.9976312847 -0.8330437172 -0.6791506194
H 1.4016469309 -2.6698982822 0.1002964384
H 1.7144075936 -0.9160862009 0.6345480493
H -0.0269348698 1.1961792599 -0.1582340017
