20
0
C -1.1698484046 1.5853488332 0.5231959339
C -0.5852002256 0.1794781737 0.4563645946
N -1.2532553654 -0.5468240455 -0.6106296525
C -1.9848792258 -1.5198848983 -0.3005665707
C 0.9383277472 0.1709273712 0.2300263468
C 1.4841289156 -1.2531073316 0.27687544
C 1.3602554638 0.8744313519 -1.0569948503
H -2.2160599448 1.548194235 0.8313277175
H -0.6208431306 2.1958931763 1.2431470482
H -1.1277582154 2.0716201766 -0.4518558735
H -0.7686074804 -0.3177999738 1.4238955576
H -2.5013006115 -2.0739574827 -1.082901933
H 1.1247358044 -1.8358054272 -0.5743145005
H -2.1363442006 -1.8488807519 0.7365552441
H 1.3632061963 0.7208999022 1.0783172565
H 1.1758501609 -1.7686899933 1.1903525563
H 2.5754306838 -1.2523311621 0.2444260927
H 0.8861844468 0.4100130403 -1.9232555225
H 2.4428354826 0.8102438279 -1.1859166814
H 1.0932139032 1.9323309784 -1.0528772042
