10
0
N 2.1023238126 0.2873530843 -0.9354890743
C 0.9776272641 0.1527514431 -0.4040242224
N 0.0498198833 1.1727084256 -0.0341335034
C -0.9524866492 0.5815981352 0.4654463607
C -0.79883023 -0.9060122481 0.4806578441
O 0.4748525326 -1.0760647179 -0.0974159578
H 2.286445964 1.2738569275 -1.0815215102
H -0.8191265834 -1.3198274124 1.4936272051
H -1.8215631556 1.11559217 0.8356592153
H -1.5632058385 -1.4117468074 -0.1178323572
