10
0
O 2.6451215812 1.1995445902 0.1915002941
C 2.174248864 0.0957116854 0.1559595668
N 0.8059403389 -0.1974565763 0.1226209507
C 0.0847297842 0.5077041902 -0.6466255293
N -1.287419379 0.3772060401 -0.7347960247
C -1.9757714343 -0.2537000765 0.0645075174
N -2.7639207172 -0.7136418308 0.8404728581
H 2.7963407847 -0.8125314625 0.1965203403
H 0.4970432711 1.2549008455 -1.3244021325
H -3.0337280936 -1.6791414053 0.9181981589
