16
0
C 2.6991881461 0.8794570467 1.8282587291
C 1.881083572 -0.1031559889 1.4266154843
C 0.4982117331 0.2351882664 1.2585387566
C -0.2027627569 -0.6529749175 0.3209191064
C -1.5119537044 -0.1448977472 -0.2194365889
C -1.6182250879 0.3876288508 -1.5911573733
N -2.1298385822 -0.9437221494 -1.2706904429
H 3.7797536652 0.7841462584 1.795141799
H 2.2764740664 1.8213906111 2.157074588
H 2.3006117758 -1.0611056826 1.1035117249
H -0.4105613947 -1.4904480625 1.0209984114
H 0.4040676777 -1.0996877363 -0.4808278319
H -2.1562430803 0.306140551 0.5290375885
H -0.7417219323 0.3956292781 -2.2300421893
H -2.324887344 1.1883656031 -1.7774812861
H -3.1383467538 -0.932109181 -1.1913324756
