11
0
C -0.15268362 0.8954612989 0.2827761348
C 1.125941051 -0.0472378284 0.3911596128
C 0.393346314 0.1108117263 -0.9008725313
N -0.7614718036 -0.7633642496 -0.931183462
C -1.0191655237 -0.3687239395 0.4706812416
C 0.1547521492 -0.3969563206 1.3819900323
H -0.2012584045 1.9346026845 0.5567212546
H 2.1217584558 0.3281436159 0.5827453297
H 0.8502836075 0.5085195502 -1.7969503427
H -2.0309385959 -0.4134654959 0.8497282598
H -0.5214116297 -1.7473400417 -1.0311505296
