15
0
C 1.5987365579 -0.9050052408 -0.0218565143
C 0.5712670401 0.0605531827 0.4915374012
C -0.8367492877 2.1243367673 0.2411692471
O 0.3022863459 1.1184920794 -0.5163730901
C -1.1603813584 0.8456805711 -0.400139029
C -0.9134947711 -0.3646774516 0.4958139758
O -1.216654233 -1.6212448892 -0.0410230861
H 2.5617153428 -0.4054733122 -0.1298461103
H 1.322740345 -1.3258457436 -0.9897091979
H 1.7102842154 -1.7258256666 0.6879650089
H 0.8820083783 0.5580138046 1.4078454138
H -0.9058408169 2.8803050407 -0.5550850965
H -1.6800195686 0.7096945765 -1.3502421673
H -1.4049805476 -0.3075887212 1.4635956097
H -0.8741556421 -1.6866569968 -0.935228365
