15
0
C -2.1313667504 0.2509197798 0.1375275164
C -1.9073213283 0.2516811116 -1.1664452141
C 1.2863076061 -1.6160912833 0.8390987598
N 1.3769614257 -0.5335111201 1.4798885101
C 1.56535238 1.2782730162 -0.5843331514
O 1.5444151747 0.5273104597 -1.5221091082
H -1.3230010732 0.1235196529 0.8494851074
H -3.1284621777 0.3758273437 0.5454909502
H 0.6418575395 1.709418786 -0.1610307915
H -0.9090126097 0.1309399802 -1.5750928517
H -2.7159757085 0.3807001562 -1.8775644777
H 1.253476765 -1.5785332437 -0.2505141766
H 1.2375978361 -2.6021823848 1.3084212089
H 1.400395317 -0.6897181562 2.4857405007
H 2.5117346037 1.5967639018 -0.1144247822
