13
0
C -1.7285446754 -1.2578828352 0.5215162672
C -1.4853992531 -1.3871693257 -0.7719097646
N 1.0000090023 2.9133513438 0.1404260926
C 0.6306237045 1.7036672062 0.0853398168
C 1.4785490474 0.5581956724 0.3014224363
C 2.1760389192 -0.4002578719 0.4799206153
H -0.9246363164 -1.1239743533 1.2371002456
H -2.7375281963 -1.2809564348 0.9172836179
H -0.4736220464 -1.364486235 -1.1618112458
H -2.284646818 -1.5232720601 -1.4915315159
H 1.9934529831 2.9790708429 0.3610296394
H -0.4124437566 1.4823902494 -0.1413271338
H 2.8022974058 -1.2468981985 0.6390359288
