11
0
O -0.0941592261 1.9179815354 0.5112715794
C -0.5263137836 1.0142861667 -0.5020519692
C -0.1837257523 -0.3662489748 -0.1100569943
C -0.49679922 -1.4545431476 0.776245284
O -0.6515909614 -1.5579007374 -0.6536231135
C 0.8903990184 0.5090231406 -0.617536745
O 1.275404319 1.4292415319 0.3995253919
H -1.2865005451 1.3402354172 -1.1990975852
H 0.3085253272 -2.0520345829 1.1900507511
H -1.4273428582 -1.4376024812 1.3334992945
H 1.5764136819 0.3192721321 -1.4320448936
