10
0
O 2.1700474573 -0.1907494439 0.1997759216
C 0.8470312398 -0.1881892513 0.0969283863
C 0.2177070013 1.0615434471 -0.1677641917
N -1.0682133543 1.1057103474 -0.2731501724
N -1.6888807913 -0.0653520224 -0.1180008643
C -1.1858523979 -1.3004612302 0.1331681942
N 0.1863363034 -1.2957879095 0.2375508042
H 2.4319002049 -1.1048024418 0.3795258446
H 0.7755610925 1.9817891856 -0.28305868
H -2.6894917558 0.0128733191 -0.2079012424
