11
0
C -1.0808588236 -1.0669810565 0.1638881311
C -0.3308622819 0.1850243496 -0.1595632133
N -0.976019138 1.2468031537 -0.8929619253
O -2.1141110638 1.000515339 -1.1880279169
C 0.9131360162 0.4496939004 0.1643467909
C 2.1375738855 0.7291788067 0.4740500392
H -1.4261827616 -1.5488898788 -0.7519679643
H -0.4480991112 -1.7564735798 0.7186711843
H -1.9660774124 -0.8338853573 0.7577322919
H 2.3755818481 1.2295677933 1.4056742076
H 2.9520418425 0.4744785296 -0.1942096253
