16
0
C -2.3409814382 -0.469793928 0.4342539842
C -1.7886913543 -0.2642757525 1.8138262843
O -0.5067322112 -0.4744274612 1.8672140348
C 0.9184451537 1.2813347085 -0.9977164809
C 1.8232865497 0.0771988341 -0.8902721498
O 1.04253053 -1.0331104025 -0.4435060072
H -3.2051993461 -1.13376745 0.5094596183
H -2.7438161385 0.4948919155 0.1090858317
H -1.6360200287 -0.8476242987 -0.319945867
H 0.5015295421 1.5454109972 -0.024686966
H -0.0864666847 -0.7299789182 1.0117217597
H 1.4789617571 2.139557512 -1.3707664848
H 0.0964894914 1.081507933 -1.6866878106
H 2.6358795553 0.2705404316 -0.1818639373
H 2.2659393984 -0.1569448682 -1.8640515324
H 1.6009922244 -1.8096642524 -0.3779322767
