11
0
O -0.5812825587 1.6237508538 1.1248153433
C -0.1033334177 0.6405075833 0.380831255
C -0.8925826752 -0.5559735801 0.0197386029
C 0.1149031878 -1.3128633596 -0.8063622567
C 1.3130773474 -0.6998028499 -0.9369309275
N 1.0717488628 0.5446873682 -0.1399637119
H -1.7968536488 -0.2497765505 -0.5167960756
H -1.223434097 -1.0652727869 0.9310598375
H -0.1246996135 -2.2688931181 -1.2497370485
H 0.0704510122 2.319519148 1.2584622278
H 1.7974346005 1.2376762918 -0.0365542463
