13
0
C -1.0185276534 1.1556011289 0.2984059622
C -0.6791311922 -0.254424258 -0.0265875511
O -1.7204864651 -1.1235732527 -0.2503415463
C 0.5477171954 -0.7737912776 -0.1495385583
O 0.7513395933 -2.0904428539 -0.4502287324
C 1.737656904 -0.0062187843 0.0103145166
C 2.747060028 0.6271473061 0.142649484
H -1.6218155873 1.2094205819 1.2107876089
H -1.5902221126 1.6134460236 -0.5142017891
H -0.1157301554 1.7411871211 0.4557286188
H -2.5423873964 -0.7373126126 0.0542459808
H -0.1139383128 -2.5076292722 -0.5187946637
H 3.6457391546 1.1855011497 0.2561726694
