13
0
C -1.9135892324 -0.9737641742 -0.182138757
C -0.4165066086 0.7613631219 0.3220282318
O -0.586300839 -0.5579416704 0.0581810858
C 2.1067646866 -0.7250944821 -0.289770576
O 2.2637943399 -1.8394272554 -0.5509976856
C 2.0244167955 0.5583642009 0.0025529643
C 0.8031984776 1.2899723531 0.31180865
H -1.8884690282 -2.0540852251 -0.3079008907
H -2.5624060321 -0.7259292021 0.6640942572
H -2.3120190621 -0.5139944648 -1.0915944044
H -1.3069088869 1.3348605679 0.5584826865
H 2.9786870079 1.0689004092 -0.0058492709
H 0.9088313816 2.3365628212 0.5585347089
