19
0
C 2.182973992 0.7811448262 1.1544314252
C 0.8612871709 1.5324131976 1.0516047955
C 0.1231082213 1.2613350947 -0.2509682057
O -1.9173359407 -3.2841052333 -0.0531003587
C -0.4746670188 -0.1233026112 -0.3662667542
C -0.9209631845 -0.5552160024 -1.7368370018
O -0.591295556 -0.8429137588 0.6019051897
H 2.0266138336 -0.2979874578 1.1132465486
H 2.8581027533 1.0576916659 0.3401921502
H 2.6899190716 1.0056745498 2.0940773047
H 0.2145535588 1.2571513442 1.8872922696
H 1.0419428236 2.607461725 1.1322870534
H 0.7693018055 1.4321898276 -1.1190664385
H -2.5469015154 -3.5401726035 0.6207946849
H -0.7163634129 1.9562319353 -0.3766294921
H -0.0333309205 -0.825809724 -2.3156503798
H -1.5775169659 -1.4213983183 -1.6763052036
H -1.4102668123 0.2660587224 -2.2633083651
H -1.4335349037 -2.5292051794 0.3154997776
