9
0
O -2.4244502049 -0.7027100495 -0.0969038023
C -1.7499646759 0.2877757571 -0.0476695148
C -0.2860712683 0.2763340187 -0.0052984161
N 0.5825639323 1.1968122468 0.0520264622
C 1.6570435251 0.2098587379 0.0538526125
N 0.8622638161 -0.8289395673 -0.0048634713
O 0.9294381268 -2.0350953377 -0.0415204421
H -2.1670771991 1.3120418051 -0.0285245143
H 2.7288289478 0.3054333891 0.0911020863
