15
0
C -1.5536145927 0.296920761 -0.6024625972
C -0.4597504827 -0.7619978315 -0.5261491148
C 0.1850895581 -0.8716374774 0.8483117776
C 1.7098246992 1.8382798546 -0.6179452288
O 1.9090206367 2.5146830409 -1.5449360526
C 1.5933955599 1.1973845353 0.4887084714
C 1.1124521266 0.235609027 1.2546032642
H -2.3606386561 0.0738687362 0.099911973
H -1.9868163258 0.3412143858 -1.6025921837
H -1.1723319191 1.2906897031 -0.3628498592
H 0.311569237 -0.5574387055 -1.2736355448
H -0.5825738449 -0.9658466797 1.6258622854
H -0.8829343288 -1.7361284547 -0.7843737668
H 0.7702773157 -1.79751867 0.9218374166
H 1.4267450167 0.196313775 2.2984761598
