12
0
N 1.9573075965 0.395882443 -0.0609732238
C 0.6426208411 0.1405227812 -0.0211104551
C 0.037901615 -1.2426110636 0.0356370369
N -1.3836526299 -0.9856413616 0.0615624902
C -1.4587464159 0.2877054124 0.0251828507
O -2.6107369556 0.9523154382 0.03277152
N -0.2783092835 1.0475305542 -0.0256226202
H 2.6308839069 -0.344274591 -0.0506130928
H 2.2761995472 1.3467687014 -0.0927900277
H 0.3662489314 -1.7848484436 0.9281737194
H 0.3237827643 -1.8403961025 -0.8357909181
H -2.3986939177 1.8897972317 0.0001607203
