16
0
C 2.2516357165 -0.8610494225 -0.2672891775
C 1.008509764 -0.3921211271 -0.2054783123
C -0.2471060247 -1.1431558471 -0.1522330109
C -1.2401108194 -0.2414460697 -0.1025206185
C -2.71496914 -0.4463656269 -0.0371737977
C -0.5637948644 1.0690680492 -0.1262945631
N 0.7171264402 0.9950538362 -0.1848046139
H 3.09216686 -0.1805559534 -0.3038896899
H 2.4457028233 -1.9262177747 -0.2827423865
H 3.3132623017 2.6538773408 1.1279084059
H -0.3302808603 -2.2208212249 -0.1539502485
H -3.2128711556 0.0128758092 -0.8946386306
H -3.1354928952 0.0091802126 0.8626226893
H -2.966220376 -1.5069236312 -0.0280433082
H -1.0735975086 2.0278565405 -0.0979207206
H 2.6978287383 2.3620178891 0.8188029829
