14
0
O 1.8134662421 1.0138175069 -0.183247632
C 1.1372945939 0.1031974945 -1.0167283506
C -0.3275609874 -0.0429660325 -0.6695143603
C -0.7033239517 -0.7035544305 0.6300688469
N -0.1243313621 0.0370814166 1.7565344696
C -1.2401709067 0.4766285429 -1.4514359142
O -2.0429159157 0.916804562 -2.161503194
H 1.5459996127 0.7998582272 0.7219959045
H 1.2600734827 0.4527140678 -2.0427690541
H 1.5973424015 -0.8936540452 -0.9525039575
H -0.2693879452 -1.7081007041 0.6481878857
H -1.7907775467 -0.8235768436 0.6989246181
H -0.1980443522 -0.4907333786 2.6158836478
H -0.6102483655 0.9153786169 1.8886480902
