11
0
N 2.1011379419 0.2953733988 -0.1597656173
C 0.7771488784 0.263385069 -0.0223799779
N -0.0707405675 -0.7805190153 -0.5688213634
N -0.7649607476 -1.2160690155 0.7333176961
C -1.0558861287 0.0401437306 0.1582321652
O -2.2996266876 0.3496187605 -0.2381599187
N -0.0747999744 1.0521950849 0.5461526946
H 2.5704869875 -0.481431342 -0.5844388901
H 2.6342654192 1.0105218853 0.2991173156
H -1.4607524028 -1.8817642028 0.3940606889
H -2.2853977186 1.2475516466 -0.5819897931
