12
0
O 1.9115077415 -0.3923643041 -0.1668436185
C 1.2172698663 -0.0672152362 -1.0890939968
C -0.2341420455 0.2554933714 -0.9680216772
C -1.0608970014 -0.5028729058 0.0110831501
N -0.6607239281 0.8539102357 0.2980257438
H 1.0868490111 -0.1708893949 2.4592342191
H 1.0053754718 -0.3527553626 3.1788554032
H 1.6298483754 -0.012950413 -2.1173741353
H -0.7150025546 0.5861565964 -1.882755823
H -0.562991037 -1.2552684416 0.6113589722
H -2.0901846049 -0.710896421 -0.258891544
H -1.4190392947 1.5035992757 0.1306933065
