11
0
N 1.6920875771 -1.3368330595 -0.4762465518
C 0.9594728302 -0.2046357225 -0.478876572
C 0.2853511307 -1.3815974907 0.0638319977
O -1.9175654459 0.7253076629 0.8344687114
C -1.5359365189 1.6881165235 0.2295298632
O 1.0004152273 0.9673281229 -0.7031039878
H 2.5169625092 -1.4673221643 0.0919151094
H -0.3946335927 -1.9913861983 -0.5175346331
H 0.1330815088 -1.3991487738 1.138551963
H -1.7248665178 1.8146412626 -0.8511980002
H -0.9832187082 2.5078388373 0.7215911003
