14
0
C 1.9717498543 -0.0175165255 0.0315125007
N 0.5254740697 0.031251491 0.0034500546
C -0.1048103591 -0.8144503716 -0.688274981
C -1.5914891863 -0.8433169826 -0.78006517
C -1.3378792698 2.7464743806 2.2119931792
N -0.7714865003 1.9651610994 1.565103958
H 2.3812834395 -0.8361976067 -0.5704684806
H 2.306172695 -0.1315517433 1.0639762326
H 2.3688240655 0.9298352716 -0.3369614432
H -0.2791563108 1.2575856636 0.9837008837
H 0.4419346822 -1.5767294321 -1.2591805179
H -1.9019579869 -0.7485633711 -1.8232669959
H -1.9681615836 -1.8041743325 -0.4213360391
H -2.0428576092 -0.0422695408 -0.1975471812
