17
0
C -1.7187157215 0.4859742896 0.2941708435
C -1.2239336602 0.2657845717 -1.1344284883
C 0.2339304342 -0.067126502 -1.1928279042
O 0.4910211315 -1.264970463 -0.598340673
C 1.1734925604 0.7017324693 -1.7360305593
C 2.4237044378 0.1201995696 1.4468968125
O 2.0553154268 0.8714626979 2.1955314995
H -2.7850050004 0.7168051224 0.301136645
H -1.5622273789 -0.4038582041 0.9043970862
H -1.1891754552 1.3170223585 0.764388786
H -1.7789900849 -0.557825034 -1.5933319031
H -1.4018941507 1.1544770236 -1.7408612589
H 0.0915897446 -2.158918549 1.8549196053
H 1.4405323334 -1.4138251483 -0.5769283094
H 0.9083785802 1.6439378963 -2.1923902994
H 2.2173338317 0.4097706872 -1.7467075575
H 0.0947939711 -2.4530207858 2.5406246754
