13
0
C -1.6304110454 -0.9999913592 0.5070041909
C -1.1457614993 0.2266881374 -0.2147025131
N -0.7138301355 1.4272648943 0.540946491
C 0.2445482968 0.6344406041 -0.1259471939
C 1.5018967401 0.466797441 -0.3357827764
C 2.771614824 0.2867035419 -0.5662584748
H -1.0124115896 -1.2054148671 1.383265778
H -2.6670006806 -0.874791764 0.8276772313
H -1.5831390875 -1.8713866798 -0.1481396381
H -1.6918483969 0.4884799928 -1.1164000591
H -0.7063866114 1.2681204169 1.5440382465
H 3.2678020936 0.7823781947 -1.393790566
H 3.3743270917 -0.3616955529 0.0606682839
