15
0
O 2.8709915674 -1.0112445957 -0.0166234315
C 1.6924172202 -0.7564163608 0.0515255102
N 0.6562153461 -1.6635544953 0.1542759407
C -0.6201971956 -1.0064304916 -0.035279787
C -0.2943284201 0.4334513079 0.3898556121
C -1.1341812325 1.4885606013 -0.3010770207
N 1.115726296 0.4987545623 0.0420811989
H 0.8286448688 -2.5940160142 -0.1829557477
H -0.9441482722 -1.0253746367 -1.0839622035
H -1.4045980214 -1.446512394 0.58109299
H -0.4243541093 0.5174532007 1.4776279615
H -2.1918830275 1.3477377609 -0.0680537681
H -0.8525217044 2.4909488191 0.0263061687
H -1.0024143813 1.4322377208 -1.3829245252
H 1.6929590659 1.2653410156 0.3412781015
