14
0
N 1.837570595 -1.9196743051 0.2613008908
C 0.7814977655 -1.4664817413 0.245618563
O 1.3226459866 0.6273287179 -1.7824233026
C 0.5607979395 1.3218249152 -0.8243639194
C -0.6483851106 0.5567263421 -0.3161443413
C -1.2079866078 -0.5824938148 -1.088400546
C -0.5164974148 -0.8496259741 0.2290339757
H 1.915163635 0.0144172239 -1.3390157829
H 0.2025067803 2.2297445139 -1.3140187978
H 1.1800031803 1.6304125812 0.0261806077
H -1.3504399785 1.1754781517 0.2315565214
H -0.6708852176 -0.8686911814 -1.9822713415
H -2.2781818082 -0.7339534098 -1.1116664471
H -1.1327027445 -1.1170100193 1.0772599199
