15
0
O 2.1715379168 -0.2714471971 -0.5446929833
C 1.7129342329 -0.9432016952 0.4948549954
C -0.2045473503 1.5217981011 0.1605966016
C -0.6887562539 0.0999307533 0.2481051361
O -1.8119594384 -0.0555472287 1.0694492813
C -0.5489267077 -0.8471572071 -0.8786526454
C 0.2596711849 -1.087525697 0.3954592093
H 3.1231656265 -0.1875321027 -0.4385606677
H 0.0418090953 1.8989718603 1.1537811004
H -0.9982887478 2.1478348483 -0.2564158864
H 0.6675066896 1.6145469173 -0.4823006151
H -2.5469372631 0.4073060603 0.6597739577
H -1.3588963294 -1.5405038956 -1.0605503428
H 0.0144672979 -0.5291531266 -1.7465574366
H -0.1446139531 -1.8256273903 1.0748892955
