11
0
C -1.3903631556 -0.8882583168 0.5729571187
C -0.8739595115 0.4977086471 0.1838238508
C 0.5745369976 0.5277443066 0.0094080822
C 1.7641735069 0.5265244401 -0.1274279497
C 4.2360212994 0.534470818 -0.4125883214
N 3.0728434781 0.5309160111 -0.2788713347
H -0.9491264925 -1.2183422445 1.5136650627
H -1.1432445879 -1.6241050938 -0.1925647177
H -2.4741750407 -0.8668008466 0.691138827
H -1.1455430947 1.231586315 0.9470806439
H -1.3415563992 0.8299669639 -0.7467002618
