16
0
C -2.4959941648 -0.0358401769 -0.2254191847
C -1.0432246095 -0.0839505597 0.0867828664
C -0.0963816634 0.8458099898 0.1282593024
C 1.1964225969 0.1776492631 0.510768932
C 0.8704477306 -1.295846668 0.6690321199
C 2.3610734299 0.4120594825 -0.4508669006
N -0.4224803278 -1.3305292494 0.4210850304
H -3.0941936096 -0.3603651336 0.6300009702
H -2.7956422809 0.9776460379 -0.4859482709
H -2.737957197 -0.6912767929 -1.0662142097
H -0.2346252753 1.8973883838 -0.0769353991
H 1.5067752864 0.5054968033 1.5135599089
H 2.10743189 0.0614193411 -1.4529559364
H 2.6048414022 1.4739932823 -0.515567601
H 3.2431923947 -0.1318569277 -0.1140176398
H -0.9511406021 -2.1891320757 0.4505140121
