14
0
O 1.984053352 -0.6444920259 0.31818114
C 0.9561967156 -0.0184014783 0.2575233376
C -0.3251112044 -0.4685313035 -0.4377149069
C -1.3261307807 0.6704291313 -0.2235106628
C -0.5554249706 1.6903044977 0.5682400657
C 0.693913119 1.3189157123 0.8341794755
H 1.6540752751 -3.0292072878 -0.6720434779
H 1.386596838 -3.6615518803 -0.9665187192
H -0.1080054934 -0.6593218838 -1.4894755283
H -0.6514438987 -1.4148184353 -0.0045084389
H -1.6835105026 1.1010420808 -1.1623360229
H -2.2157578591 0.3511319197 0.3254177503
H -1.0021325083 2.6270405664 0.880956827
H 1.439156918 1.8745363865 1.3856681608
