10
0
N 1.5469039739 -0.130073583 0.5011983211
C 0.1908248784 0.1349234814 0.2203430662
C -0.2473620521 1.5060019371 -0.0552490047
O -1.3740054126 1.8178316541 -0.3541180073
C -1.6435022823 -1.505473498 0.494198599
N -0.7172940576 -0.7768096999 0.2637793424
H 2.094920576 -0.3747202698 -0.3111924128
H 1.6730533697 -0.8252027069 1.2214068456
H 0.5667224669 2.2489468261 0.0407595241
H -2.1166914604 -2.115495141 -0.2719792737
