15
0
C -2.1817925197 -0.4388586764 0.3010309171
O -0.7817235172 -0.1583714504 0.3515918869
C -0.2131922083 0.1976529955 -0.8207694693
O -0.8317910023 0.2600216591 -1.8472400723
C 1.2308064976 0.486764535 -0.6494264432
C 1.965243989 0.8357095534 -1.6943616439
O 0.9359213218 -0.4253699069 2.7352788296
H -2.3796922367 -1.2639666084 -0.3822758626
H -2.4678271857 -0.7036627841 1.3157468441
H -2.7313333173 0.4403790155 -0.0332957708
H 1.6419061602 0.4054979197 0.3502616687
H 0.2680350017 -0.3329960405 2.0466530983
H 1.5188510924 0.909868848 -2.6792720395
H 3.0204708539 1.0546050768 -1.5918470591
H 1.1761520707 -1.3526081364 2.7325231159
