12
0
C -2.1237346128 0.2246482798 -0.5945575918
C -0.9214243506 -0.6669705489 -0.6828605943
C 0.2298531389 -0.4232671617 -0.1070271001
C 1.3422555996 -0.1860406018 0.4498793268
C 2.5036282873 0.0414535872 1.0185764252
O 2.8160803285 1.1159004428 1.7831054482
H -1.91792657 1.1049243452 0.0133623182
H -2.4340599232 0.5568503599 -1.5885044231
H -2.9702644157 -0.3075955205 -0.1532715671
H -1.0105181891 -1.5794310599 -1.2660628791
H 2.0463505136 1.6888293999 1.845089552
H 3.3411881933 -0.638105522 0.9186270851
