11
0
C -1.8786357792 -0.0351583191 0.9245030057
C 0.3556181389 -0.427367021 0.1005826215
N -0.7048202778 0.3361996293 0.162950282
O 1.2520451343 0.2512942989 -0.6976692806
C 2.4648835948 -0.3291941705 -0.9368163421
O 2.8513886644 -1.3747231663 -0.5405288262
H -1.6916117594 -1.0085205431 1.3712287117
H -2.7537794236 -0.0962792293 0.2756230447
H -2.0711869261 0.6946733579 1.7124845634
H -0.724978908 1.2258949762 -0.328026308
H 3.0378805416 0.3561501872 -1.5773784722
