12
0
O 2.4671251468 0.0229301238 0.2116577415
C 1.3930073305 0.0373388122 0.96424669
C 0.3041131658 0.6283045766 0.131356965
C -0.4105072598 -0.4621428712 -0.7034799095
C -1.6324667304 -0.0851287633 0.1401482332
O -0.8937379676 0.9160126037 0.8522977103
H 3.1782148153 -0.3967440652 0.7062100866
H 0.6563815436 1.4994080036 -0.4361848491
H -0.0349056018 -1.4737316763 -0.5547698442
H -0.4720380369 -0.2466244012 -1.7669753158
H -1.9967051492 -0.8690836324 0.808892333
H -2.4748822564 0.3454692897 -0.4077658412
