15
0
C 2.1332143443 -0.3117567315 1.5674117242
O 2.2116910512 0.7508101738 1.0170021756
C 0.3878385995 -0.123192026 -1.318808176
O 0.8266713874 -1.2408792183 -1.4015888823
C -0.5986006899 0.2664552007 -0.2453003969
C -1.9334614 0.647270342 -0.8803114029
O -0.7362217387 -0.7805624286 0.6777884755
H 2.2260665843 -1.2622003525 1.0120172394
H 1.9665048791 -0.3918765428 2.6567650459
H 0.6670580512 0.6601819089 -2.0459148165
H -0.1795976163 1.1396390052 0.2690432917
H -1.8183213357 1.487161103 -1.5689590178
H -2.6342556483 0.9357421746 -0.098016522
H -2.3542378781 -0.200989061 -1.423329853
H -0.3612655901 -1.5641095475 0.2525861148
