13
0
C 2.2567420738 0.1184660297 -0.2157430094
O 1.2137298355 0.3857521882 -0.851784918
C -0.0385259524 0.3567829985 -0.3017958345
C -0.3235772336 0.0278225242 1.0220911766
N -1.6835731202 0.1567560714 0.9357630222
C -2.0922133263 0.5309536699 -0.3258261838
N -1.0805775647 0.6646352103 -1.1277179096
H 2.1897080705 -0.1063380271 0.8453613637
H 3.1747831568 0.1606091603 -0.7873523806
H 1.4263297333 -2.4317997514 0.0198400386
H 0.8540668948 -2.0872874875 0.3685153136
H -2.3066069328 0.0020925385 1.7086473903
H -3.127863635 0.689039875 -0.590534069
