14
0
C 2.3085312046 0.5089869179 0.3465478489
N 1.3348019917 0.2653994847 -0.7080895978
C -0.0778165864 0.1390664376 -0.443091629
N 0.239589595 1.2885615221 -0.9295769637
N -2.8684515578 0.4785528532 -0.0475299443
C -2.2828638665 -0.6134767719 0.2563522194
C -0.8677853441 -0.8263832881 0.0721777176
H 1.773339249 0.8874608028 1.2137669402
H 2.8147659188 -0.4221092619 0.6036983908
H 3.0325791735 1.2509844111 0.0111806642
H 1.6867205386 -0.1439027173 -1.5637814858
H -3.8607756068 0.422496852 0.1599409994
H -2.8210659543 -1.4693394404 0.6823735942
H -0.4115657552 -1.7662988018 0.3460312461
