17
0
C 2.204117405 -0.6031917095 -0.15892528
C 1.3263457142 0.3871538468 -0.0631892314
C -0.9190852891 1.4824163493 -0.8707181606
C -1.3421826259 0.7101798576 0.3193486675
O -2.0460592538 -0.4607483613 -0.057380752
C -0.8741643409 -0.9661968791 -0.7351895115
C -0.0887590686 0.2964523088 -0.4237148417
H 1.9235020664 -1.5841643243 -0.525984051
H 0.3725669285 -1.1163916983 2.3231743503
H 3.2393314918 -0.4629967685 0.1236403033
H 1.6578546509 1.355720992 0.3031033259
H -0.4630746536 2.4447021552 -0.6700764705
H -1.5038403205 1.4240769562 -1.7822311401
H -1.4925042397 1.1065315191 1.3149405647
H -1.0648847392 -1.194104185 -1.7873056609
H -0.4951706117 -1.8516655307 -0.2198874257
H -0.1508911139 -1.3285975285 2.8103563139
