14
0
C -1.3348108827 0.9490108295 -0.2596983438
O -0.7125865268 -0.3646111932 -0.3142822491
C -0.0928220246 -0.806485671 1.0032944398
C 1.3030311362 -0.2385713046 0.5404380799
C 0.6892122377 -0.3554503077 -0.9070767105
O 1.5038361616 0.9918342763 0.9124751757
H -2.2428923744 0.8347078249 0.3283397333
H -0.6211209294 1.6380879692 0.1969933632
H -1.5764739259 1.215274015 -1.2864817223
H -0.2595484794 -1.8837183949 1.0367893531
H -0.5622998536 -0.2726496615 1.8260834403
H 2.1163752912 -0.9834993988 0.6991010018
H 0.8144044552 0.5234760344 -1.5349415111
H 0.7590667146 -1.2941150176 -1.4576210503
