14
0
O 1.8004209261 -0.8247024194 -1.2001043696
C 2.0515276713 -0.1627301415 -0.2317946423
C -1.2478185276 -0.0711073187 -1.0891896929
O -1.0837682716 1.0902243368 -0.8187336851
C -1.0559942256 -1.15524281 -0.0678497265
O -0.5366840296 -0.6538706502 1.1267861104
H 0.2329987182 2.5484220412 1.9510190744
H 1.7528699446 0.8987280547 -0.1604330077
H 2.5942771812 -0.580221781 0.6347820576
H -1.5670534339 -0.3892826205 -2.0975291954
H -0.0992385178 2.5540811019 1.2827320959
H -2.0319068516 -1.6427415692 0.0809299983
H -0.3799180361 -1.90781372 -0.4870656564
H -0.6654525474 0.3035554959 1.1020636392
