17
0
C -2.2402425647 0.2663879877 0.5946177986
C -0.8725600373 -0.0406509193 0.0893135101
C -0.4232510595 -1.0092399315 -0.9488482795
C 2.5502840702 0.466713532 -0.720010893
C 1.5186477322 1.0579853687 -0.1386145206
C 0.4638738212 0.3535909084 0.6444998068
C 0.1107151604 -1.0836781167 0.4486001937
H -2.9145908396 -0.5756929115 0.4228780447
H -2.2191519484 0.4736054714 1.6672979805
H -2.6649566954 1.1393744633 0.09458514
H -1.1507021847 -1.7682206042 -1.2225653878
H 0.22710306 -0.6971716908 -1.7614950285
H 3.2879631906 1.0301627124 -1.2782570252
H 2.685961847 -0.6079945384 -0.6526778286
H 1.4074185772 2.1375299862 -0.2148520892
H 0.3978828461 0.7006193338 1.6766136502
H 0.0281830248 -1.8787150517 1.1718739277
