17
0
C 1.7191176067 1.1171627268 -1.3721863517
C 1.148057341 -0.0166352776 -0.6278669705
C -0.8370258799 -1.3581572709 1.3592526308
C -1.0385232523 -1.20287062 -0.1390647303
C -0.3015158464 0.1050384191 -0.4424817843
C -0.2799236337 0.8233490233 0.9594380448
O -0.9167043637 -0.0356753911 1.8679807894
H 2.7608119697 1.3285847356 -1.1311124308
H 1.7360793888 0.6755445867 -2.3850959988
H 1.1235814809 2.0392216942 -1.4368667043
H 0.1482005272 -1.7875911692 1.5748560463
H -1.604657186 -1.9508480165 1.8560197205
H -2.1004271143 -1.101623779 -0.371891716
H -0.6287398367 -2.038390177 -0.7063514104
H -0.8245650827 0.7347977757 -1.1736985913
H -0.8189176099 1.77021314 0.912823548
H 0.7497404913 1.0310026002 1.2897209085
