10
0
N -1.924645581 -0.3365986809 -0.5523528594
C -0.6108813915 -0.3415703374 -0.258296119
O 0.1235391403 -1.2903873291 -0.4098600612
O -0.2603890938 0.8871287716 0.2309236131
C 0.9851731717 1.3099036887 0.6442192855
N 1.9171255441 0.3918667563 0.5367749349
H -2.4764624083 0.4862849533 -0.4028486829
H -2.3354410646 -1.1714786329 -0.9238324039
H 2.837804232 0.6660797714 0.8293459202
H 1.756445451 -0.5475519608 0.1874883726
