14
0
C 1.0559524579 -1.1951847081 0.1578333668
C 0.3656398496 0.1508427882 0.1596655264
C 0.9951101458 1.3932467353 -1.8127903137
O 0.1771041127 0.5947123629 -1.2159908086
C -0.9830411426 0.0801542729 0.8691223226
O -1.0128346303 -0.1541823122 2.057407205
N -2.0739454162 0.2757173347 0.1030488684
H 2.0516709016 -1.1099159034 -0.2788730674
H 1.1438342548 -1.5520151962 1.1830186659
H 0.4772211704 -1.917526362 -0.4195523644
H 0.9680938517 0.9073429916 0.6695183933
H 1.8028809909 1.6459722398 -1.0713470325
H -2.9768404141 0.2366992924 0.5409974955
H -1.9948621324 0.473173464 -0.8777072573
