13
0
C 1.8273793816 0.2481581031 0.2165235783
C -0.719847849 -0.9447654939 -0.0776746387
C 0.5934605407 1.1136783294 0.1181662947
N -0.6452162694 0.3380340157 -0.0296536085
C -2.0255211691 -1.5362144676 -0.2789833574
O -2.5719156434 -1.6508102972 -1.3558523914
H 1.781599939 -0.4083355716 1.0848630029
H 1.9380257428 -0.3806364776 -0.6661362472
H 2.7048385259 0.8901981331 0.3058024343
H 0.4837180154 1.7399666231 1.0078370429
H 0.6562994139 1.7841626252 -0.7433643764
H -1.4733585853 0.9213279271 -0.1399520278
H -2.4587950429 -1.9898254488 0.6399682945
