12
0
C 1.5416670009 -0.2378402264 0.3662566902
O 1.8313806848 -0.0167155966 1.5087046641
C 0.3058662061 0.2654087596 -0.3209535036
C -0.7978240896 0.8487230652 0.561833189
O -1.6802232905 -0.2428438996 0.2499357556
C -0.7354681831 -0.8264463043 -0.6480660433
H 2.1993161973 -0.868495862 -0.2693795151
H 0.6054290055 0.8674214309 -1.1809018343
H -1.2049902886 1.8056614237 0.2269672704
H -0.5564597729 0.8951460916 1.6251975678
H -0.4643255376 -1.8462936273 -0.3565489085
H -1.0956729324 -0.8305762546 -1.6802773327
