13
0
C 0.6544756614 -1.1347599472 1.0548458244
C -1.7459723764 0.7156270877 -0.1955970863
C -0.7577160787 0.6844070171 -1.0825784615
C 0.6780199398 0.6181286903 -0.7819014856
C 1.2829965508 -0.1401657119 0.131608376
H 1.2608802453 -2.0415570683 1.1047111183
H -0.3529286483 -1.4059938455 0.7391951931
H -2.7802762716 0.7730751736 -0.5122142444
H -1.556523081 0.7103350231 0.8714639383
H -1.0100571567 0.7496879367 -2.1387118508
H 1.3086729492 1.2423367141 -1.4094425103
H 2.3634709054 -0.0492477778 0.2063678931
H 0.5908353609 -0.7397062922 2.073088296
