10
0
N 2.533853296 -1.0469747519 0.3979447888
C 1.5462167827 -0.5785471595 0.0538735558
C 0.3087996223 0.0816650877 -0.3771948437
C 0.2536887089 1.5021463534 0.2348007861
O -0.7392910981 1.9956330295 0.6614142797
C -1.8652887517 -1.3546368174 0.1121157837
C -0.8818419244 -0.715350891 -0.1086075452
H 1.22590559 2.0296215006 0.2123305371
H -2.7420360128 -1.9248120596 0.3126894694
H 0.4010117871 0.2462827086 -1.4597358117
