10
0
C -1.5030028975 -0.1593597284 -0.3676307364
N -0.2203406642 -0.2126503206 -0.2802245467
C 0.6259732415 0.5068041082 0.6834144866
N 1.9512286143 0.0688922846 0.3122269341
N 1.8310015349 -0.7235174607 -0.6529500742
N 0.5789516219 -0.9511816531 -1.0740430788
H 0.3771988838 0.2139444383 1.7040341541
H -2.0502169906 0.4660606103 0.3199402458
H -1.9883852579 -0.7454399971 -1.1327148285
H 0.5100969136 1.5843397187 0.5616314439
