10
0
O 1.466162513 -0.3169070243 0.4312973146
C 1.2062160066 0.8922579752 0.807515288
C 0.4099771521 -1.0060566282 -0.3343123034
C -0.7162329923 -0.0297569624 -0.3261118324
O -1.1251584352 0.2681533009 0.9903158772
C -0.2116761465 1.1679199172 0.3579815577
H 0.8074470279 -1.2143197243 -1.3270713639
H 0.1949778509 -1.9330780012 0.1943124972
H -1.4706066994 -0.00249968 -1.1028468709
H -0.5698502771 2.1762678269 0.1964618357
