13
0
C 2.2379842459 0.4656590291 -0.2801544788
C 0.9552423357 0.1222143423 -0.2376985589
N 0.30025871 -0.5475578551 -1.3033392319
C -0.8674396954 -0.8371320422 -0.9013801762
C -1.1844732725 -0.3744349622 0.5053491068
O -2.350086645 0.4057606838 0.5943571971
N 0.0301095245 0.3380366857 0.7893697964
H 2.816215839 0.217342979 -1.1568609712
H -1.366095007 -1.2169734663 1.1819834101
H 2.7168844661 0.9817462675 0.5403032484
H -1.5901903422 -1.3518876497 -1.5261531619
H -2.1878032426 1.2267183399 0.1197167694
H 0.3601060834 0.3913676483 1.7362440506
