15
0
O -1.8345315135 1.1225679807 0.4884312617
C -1.1746116831 -0.1190148126 0.5248909607
C -0.7337601429 -0.6611843892 -0.8560437459
C 0.6953680381 -0.2150587904 -0.5401278104
C 1.9930394539 -0.5085062684 -1.1469411069
O 1.0458287067 1.0310366543 -1.2418193361
C 0.3196609868 -0.0543071411 0.9315239893
H -1.3897218089 1.6955248228 -0.1408324893
H -1.8035166468 -0.7742180661 1.1247317375
H -1.2026131319 -0.2194010894 -1.7359449867
H -0.7967134059 -1.748234596 -0.922290624
H 1.6507938574 1.5277025931 -0.6794698929
H 1.781769475 -0.8754133195 -2.1639368288
H 0.6478473994 0.8528740357 1.4422733003
H 0.6454044157 -0.9223056141 1.5063755715
