15
0
C -2.4103149807 1.6199990974 -0.8244916826
C -1.9691666512 0.3118465663 -0.2474843093
O 3.951333343 -1.4560994863 -0.1919120828
C -0.8199335823 0.1438966346 0.3901371211
O -0.4341466408 -1.047151564 0.9155040393
C 2.6925026507 -1.2983042031 0.1921501618
O 2.358512162 -0.8607993128 1.2608745352
H -2.5788798914 1.5459327722 -1.9024850091
H -3.3484488243 1.9607292202 -0.3779173872
H -1.6623838641 2.3979361678 -0.6572093665
H -2.6276828191 -0.5455948072 -0.3504568102
H 4.5255881694 -1.1647947169 0.5303346863
H -0.1210887157 0.9674366976 0.530272823
H 0.4512226931 -0.953828067 1.293324802
H 1.9956919516 -1.6178099988 -0.5915655209
