14
0
C -1.503118495 -0.9055642577 0.4432836303
C -0.8058942674 0.1798715758 -0.2890151792
C 0.924993292 2.1155348327 -0.3122109832
O 0.3549034474 0.695673152 0.3764427367
C 1.2389807815 -0.3797322759 0.4630539261
N 0.868707618 -1.4563534747 -0.0606751741
C -0.4564408997 -1.2534339852 -0.5844697247
H -1.2662949358 -1.0790841317 1.4855297348
H -2.5357756101 -1.0701788428 0.1664971656
H -1.2480030205 0.924245831 -0.9314867397
H 1.2955666281 2.5682113182 0.6189305357
H 1.8085361038 1.6924039732 -0.8190765017
H 2.1623781162 -0.1533477438 0.9760521629
H -0.7108117586 -1.7844219712 -1.4895605895
