15
0
C -1.7558225385 -1.119305703 -1.5547407801
O -2.1567543403 -0.086215216 -2.0114766789
C 0.5714425702 -0.3751410794 1.6222026351
C 1.5815468963 -0.509525264 0.5694074334
C 1.3929816695 0.4525812643 -0.344497254
C 0.2254265881 1.2976912584 0.0574404459
C -0.2221338507 0.6671013487 1.3382245388
H -0.9659965421 -1.1515056172 -0.7820705559
H -2.1606842717 -2.0931926188 -1.8901053845
H 0.4921243023 -1.0213521281 2.4862768404
H 2.3512352963 -1.2695342937 0.5461767108
H 1.9774789404 0.6151113272 -1.2392107777
H 0.5100626063 2.3466546948 0.198294542
H -0.5671889272 1.2956591485 -0.7012854858
H -1.0593003988 1.0188998782 1.9245947705
