11
0
O 2.0565811489 -1.507092032 -0.2295909269
C 1.0696138646 -0.8185513555 -0.1151425826
C 1.0107627456 0.628334673 -0.2074277239
C -0.1702898912 1.2406303838 -0.0538915385
N -1.3138591154 0.5182243756 0.1879183148
C -1.3952880677 -0.8285228647 0.2942593119
N -0.1891368618 -1.4024489168 0.1331829869
H 1.9231080057 1.1728967202 -0.3975833149
H -0.2858639107 2.3164849999 -0.1111400486
H -2.1780691586 1.0194610885 0.2952430043
H -0.1564967593 -2.4096460719 0.1978115173
