12
0
N 2.1572844201 1.594210827 0.8686672377
C 1.6459917392 0.6017731304 0.6076640368
C 0.9743952972 -0.6383556118 0.239471134
O 0.3982345237 -1.3285657244 1.3783593593
C -0.852364174 -1.3167208748 0.9337907762
C -1.1096554887 0.7982364423 -0.5239280579
C -0.4586073581 -0.5569770675 -0.3346774745
H 1.6737430286 -1.2887851837 -0.2865959492
H -1.0177548 1.4157688797 0.3705814668
H -2.1707986016 0.6631693553 -0.7337162849
H -0.6559947515 1.3362833454 -1.3571906022
H -0.5862678351 -1.1841695181 -1.220033642
