10
0
N 1.9911868472 -1.081013597 0.5731361741
C 1.0078018802 -1.1667612736 -0.2970627323
C -1.6093223363 2.1875136553 -0.3878369229
O -0.723731993 1.2422897394 -0.3312436633
C -1.0485113008 -0.0454214459 0.1554772533
N -0.2039975175 -0.9544606053 0.1709073517
H 2.9252187228 -1.2898561168 0.2714405252
H 1.868164081 -0.8115322911 1.5418039298
H -2.5686432704 1.7559144104 0.0137266392
H -2.0849651131 -0.1396384753 0.4731534452
