13
0
C -1.0615758241 0.9109065549 0.197277217
C -0.9067122676 -0.5255241406 -0.1880316591
C -0.110508743 0.5302649383 -0.874173445
N 1.1987492221 -0.002362129 -0.3059497451
C 1.3653577503 -0.3411751908 1.1690839999
C 0.4424458934 -1.1163407652 0.3475021144
H -0.7012500318 1.2720681418 1.152350816
H -1.9624663142 1.3902453743 -0.1633222543
H -1.710250721 -1.1272393084 -0.5837813389
H -0.1139611105 0.901549379 -1.88809893
H 0.919949662 0.4431070055 1.7803648316
H 1.9586047053 -0.1857383948 -0.9403520522
H 0.6607387792 -2.1364504654 0.0458224457
