15
0
C -1.8437338724 -0.9251186873 0.1610735277
O -1.4813233699 -1.2977781675 1.4378127452
C -0.7028120639 -0.2471279851 1.6320407057
C 2.3515036474 -0.0773549149 -0.6534473355
C 1.0538114083 -0.2208575724 -0.8694394877
C 0.0260813813 0.8402399761 -0.6123956303
C -1.0651560862 0.3748948526 0.3400694787
H 2.7642720363 0.8494887554 -0.2670482679
H -2.9080011712 -1.0201474368 -0.0485229766
H 0.18458715 -0.3240242281 2.2461362661
H 3.0514253249 -0.8789617861 -0.8548304473
H 0.6655999124 -1.1626078415 -1.2500596496
H 0.5027745663 1.7366323386 -0.2071149568
H -0.4476670566 1.1301950557 -1.5552017657
H -1.8257118069 1.1504656411 0.4969057941
