16
0
C -0.5842107247 1.2795029179 -0.6395444488
C -0.5953091305 -0.0040743236 0.1610438202
C -1.5798898143 -1.0190879218 -0.3769140295
C 1.9677682883 -0.1443779393 -0.7948681232
C 1.8487139437 0.0075587778 0.6717388775
O 0.686419552 -0.6991348927 0.1827677435
H 0.1768368286 1.9782095313 -0.2949875225
H -1.5608354675 1.7563648285 -0.5295942189
H -0.3951543993 1.0784436721 -1.6922634905
H -0.8102547123 0.2101316127 1.2136635563
H -2.5888701822 -0.6049389156 -0.3559153548
H -1.5658703788 -1.9324561531 0.2177532478
H -1.3304743854 -1.2691521763 -1.4095650241
H 2.4329101582 -1.1276412557 -0.9599309985
H 2.3790367501 -0.6104988357 1.3966290991
H 1.6039706742 0.9930290732 1.0689058664
