15
0
C -1.4424272521 1.3761389879 -0.8657050157
C -0.4886214933 0.5023990406 -0.5890546881
O -0.1135572419 -2.8001390789 -1.0169657493
C 0.1683801568 0.3939060724 0.7587656252
O 0.3246076623 -0.94080899 1.1634910144
C 1.5234438287 1.0784853281 0.73590382
O 2.5230909428 0.5055386158 1.0719223353
H -0.9530505602 -3.2568127164 -0.9589493955
H -1.8703214901 1.4463977358 -1.8577489883
H -1.8368787285 2.0488413314 -0.1108121667
H -0.1196779169 -0.1869233653 -1.3432623397
H -0.0434317238 -2.2830985184 -0.2029932764
H -0.4346985972 0.9480917649 1.4944396596
H 1.2581727897 -1.0463209981 1.4033838619
H 1.5312026236 2.1308667902 0.4006003031
