13
0
C 1.4797493872 0.6441740653 0.250818874
C 0.4893312149 -0.0479057757 -0.6772530625
C -0.2131276839 -1.2616154599 -0.1039805005
N -1.4018343358 -0.7125591136 0.3549766829
C -1.6409496724 0.4690997384 -0.1265000718
O -0.6489930997 0.8578951573 -0.9335672723
H 1.843536636 1.5790084103 -0.1813339717
H 1.0146748227 0.8576344648 1.2163858305
H 2.3327386061 -0.0165760782 0.4195333082
H 0.9494751665 -0.2141919964 -1.6534631796
H -2.0584490984 -1.2063496246 0.9352356948
H 0.3072735385 -1.9013679925 0.598884964
H -2.5681634816 1.0133972048 -0.0866132962
