12
0
C -0.5324564794 0.2664632584 2.0611226442
N -0.4749071133 -0.0779019399 -1.0008171246
C 0.553733219 0.4471658177 -1.9205681471
C 0.8964217679 -0.7964159233 -1.2193178824
C 0.4296086989 -0.3560718233 0.0598111629
N 0.5361005799 -0.3513850091 1.2955805734
H -1.2683632477 0.7859862035 1.4388979008
H -1.0461054015 -0.5033894103 2.6399514182
H -0.0972480692 0.9719791084 2.7699615464
H 1.0593431095 1.3682081851 -1.6464501503
H 0.2623719765 0.370987727 -2.9624716988
H 0.9637429594 -1.7949681942 -1.6263502426
