10
0
N 0.627088905 -0.2545198226 -0.1786962447
C 1.3140649349 -0.1261261731 0.9879942333
O 1.0302329251 0.6450461705 1.8699252073
C -0.5610547013 0.5185655457 -0.4425525011
C -1.734552185 -0.3299910438 -0.6791003114
N -2.6417762145 -0.9977191859 -0.8914729253
H 0.9220527854 -0.947074992 -0.8440132039
H 2.1797140829 -0.8071388186 1.0398075522
H -0.4301519264 1.1752825347 -1.3058134827
H -0.739039606 1.1453307852 0.4326636765
