13
0
N -1.6812886348 0.3495231472 -0.0227044766
C -0.3118351092 0.127128126 -0.4535984911
C 0.2589454356 -1.1208534982 0.1883772223
O -0.4733151731 -2.2240834917 0.2690227111
N 1.4461489235 -1.0049903488 0.6340072366
C 1.7838673249 0.3582769925 0.4038440945
C 0.8142379214 1.0826715275 -0.1600520893
H -2.1646231019 0.9970964905 -0.6275786895
H -1.7077064161 0.7224370629 0.9176190142
H -1.3817678515 -1.9710178425 0.0484165084
H -0.3359615794 -0.0691297891 -1.5337196402
H 2.7687669934 0.6917124127 0.700343629
H 0.8474112671 2.1236222111 -0.4434860294
