14
0
N -2.5995958532 -0.3511135559 -0.0336801276
C -1.2202429901 -0.0332436011 -0.0103312475
C -0.0840013178 -0.8027268047 -0.017716317
C 0.957567937 0.1630305284 0.0182751836
N 2.4070408824 -0.061074302 0.0270043782
C 0.5360154083 1.4711457033 0.047627541
N -0.8280005398 1.2820484414 0.0277848487
H -2.8624833155 -0.8686650474 -0.8592599448
H -2.8901331611 -0.8710772372 0.7812398333
H -0.0446435352 -1.8821660771 -0.0437769317
H 2.76166251 -0.521530006 -0.8099146103
H 2.744696498 -0.5657503091 0.8452065534
H 2.7569148232 0.9055525904 0.0563750156
H -1.5056083464 2.0236946772 0.0379838253
