12
0
O -2.2388200491 -0.6588864269 0.0897034422
C -1.1235393821 -0.6859789267 0.5171009423
C 0.0020206597 -1.3800167477 -0.2473560924
C -0.2535690592 2.2273731212 -0.6217173801
C 0.8715744066 2.0373700215 -0.2638806163
C 1.309356303 -1.1970314337 0.3672116617
N 2.3239082691 -1.0278088129 0.8740709957
H -1.2579349189 2.3991793213 -0.9337941914
H -0.8501567763 -0.2250876128 1.4836213157
H -0.2329092186 -2.4454506183 -0.3088690673
H 0.0140609606 -0.9867647936 -1.2654178582
H 1.8727378053 1.8613249085 0.0583158481
