15
0
C 2.1148846416 -0.4314325983 -0.4497628751
C 1.5366163467 -0.680623021 -1.6128836818
C -1.1610015957 0.5401948497 1.4819036311
N -0.7237364902 1.6241818953 0.9913535606
O -0.7479545857 1.6073489224 -0.397768562
C -1.6507880713 -0.6424770509 0.7143303274
H -1.1473970135 0.5231908853 2.566962338
H 3.028086956 -0.9317947578 -0.1473151743
H 1.6940797411 0.2865868867 0.2459067961
H 0.6230785245 -0.1737249363 -1.9026337417
H 1.9515066855 -1.3960315575 -2.3143361671
H -0.4012794434 2.4711237344 -0.6300386834
H -2.1253789588 -1.3642911915 1.3764402718
H -2.3607064191 -0.3348717186 -0.0546625765
H -0.8155163179 -1.1297303416 0.2047335367
