14
0
O 1.7838911221 0.3623107675 0.4973545448
C 1.4867627831 -0.3394087274 -0.6884408234
C 0.0817066132 -0.904241951 -0.7462110169
C -1.2758845682 0.5119430932 1.4021114148
C -1.5069814369 0.6776504453 0.1039561028
O -0.8982403399 0.1058166502 -0.9550987143
H 1.1771371401 1.1024285787 0.5803764189
H 2.1932502713 -1.171318019 -0.7378741175
H 1.6489565851 0.2898386908 -1.5729107451
H -0.1495375093 -1.4832195199 0.1522030237
H 0.0026426529 -1.5641988661 -1.6126985793
H -0.5062368955 -0.1324896007 1.8025299288
H -1.8939137948 1.0562225749 2.1014026813
H -2.2823636232 1.3507358836 -0.2455271187
