11
0
N -1.1299909083 1.1806476435 0.3354265408
C -1.262286592 -0.1514904487 0.347569089
O -2.2835052212 -0.7516771654 0.6309857156
C -0.0471813752 -0.9917943763 0.0259184562
C 1.2290892719 -0.6306382647 -0.2581860454
C 1.5429628928 0.7382873034 -0.4781852539
H -1.9175875339 1.7357222143 0.6190411617
H -0.2181388021 1.575315282 0.1077729611
H -0.3108247879 -2.045668656 0.0456305941
H 1.9442248042 -1.4398989372 -0.413727977
H 2.4821882516 0.8063214052 -1.0480282421
