13
0
C -1.8201792068 -1.2133315192 0.0340105927
C -0.6681051404 -0.390987106 0.5365217214
O 2.757344671 -0.508703897 1.1960483739
C 2.8354345274 -0.2731092213 0.0666125994
O 2.9320812117 -0.0442264089 -1.0627654367
C -0.2856632323 0.7397414288 0.0181348115
C 0.0918822256 1.8710092111 -0.5026835778
H -2.2976951612 -0.7397937267 -0.8227890955
H -2.5687870491 -1.3480839386 0.8180028562
H -1.481679091 -2.2078188654 -0.2657632065
H -0.1185573164 -0.7661054789 1.3963393042
H 0.8246969226 1.9037719102 -1.3010505404
H -0.3188703609 2.8110966122 -0.1523154026
