15
0
C 1.7733758607 -0.1635018765 0.844829497
C 0.3764667841 -0.0730565026 0.2936053145
C 0.0209725979 -1.1030420946 -0.8339640161
C -0.5498958775 -1.1987974443 0.5237953659
O -1.344037756 -1.7455747661 1.2248218411
C -1.4106426538 1.4893500184 0.1034545877
O -0.0251579759 1.2530596066 0.2271092666
H 2.4526819494 0.4004587669 0.2030353569
H 2.1146782834 -1.1974673615 0.8974521099
H 1.801856928 0.2637313015 1.8473909416
H -0.6814977063 -0.8170751258 -1.6110379024
H 0.8203400661 -1.7553722971 -1.1669656625
H -1.9680125818 1.0347672933 0.9283308289
H -1.8071783931 1.1155020834 -0.8472892465
H -1.5436495251 2.5689843983 0.1311987171
