13
0
C -1.3731672192 0.5697060082 0.8655579518
C -0.949937312 -0.4283185037 -0.0415112928
C -0.1152301532 0.7580931781 -0.8162266223
N 1.1285289249 -0.022602897 -0.6820192208
C 1.3963381091 -0.2134379538 0.7454702095
C 0.4228195216 -1.0875583636 0.0869951292
H -0.0748425436 1.7700320882 -0.4092592555
H -2.2904285267 1.0103540149 0.4359332752
H -1.6246169912 -0.9256782192 -0.7401194475
H -0.4767101248 0.7800141742 -1.8405537712
H 1.0363509655 0.5281181248 1.4492460929
H 2.3843800343 -0.6156238304 0.9267369593
H 0.6040633154 -2.1341678207 -0.1230870078
