14
0
C -1.818752792 -0.0795661667 0.6026067606
C -0.4217192073 -0.5470181004 0.5187995836
C 0.7630445173 0.9772333273 -1.1738694165
C 0.7369387379 -0.2974038832 -0.3576274586
C 1.5277960251 -0.4957397448 0.9489838242
O 0.2848762915 -0.8576898013 1.5646984029
H -2.3391462795 -0.2422814069 -0.3411434323
H -2.3457277615 -0.6045228953 1.399926619
H -1.8551147341 0.9950023732 0.8249857222
H 1.7194640917 1.084295685 -1.6843472494
H -0.0265099378 0.9745264132 -1.9290808318
H 0.9274674767 -1.1871315495 -0.9702554832
H 0.6294397072 1.8456062962 -0.5279448839
H 2.2408028646 -1.3192065468 1.0388068431
