7
0
O 1.9742359533 0.5439781388 -0.3175183051
N 1.0893759625 1.3635479426 -0.3145139322
C -0.2327655114 0.8582774956 -0.2766538401
C -0.4598039409 -0.4458404277 -0.1791941365
N -0.6050613838 -1.6145927413 0.0342650839
H -1.0341035049 1.5783911414 -0.3193004748
H -0.6747775748 -2.2960925493 -0.7116403952
