17
0
C -1.8694723274 -0.2847171379 0.5401820449
C -0.7124957256 0.0694360216 -0.3633157796
C 0.3243452669 1.1136600911 0.1273872904
C 1.4031217036 0.2119732431 -0.431700727
C 2.6433877634 0.4099490523 -0.8375881178
O -1.3690432453 -0.6535931159 1.813074629
C 0.4425898342 -0.9530056407 -0.5273146959
H -2.1035606347 -0.8771532099 2.3845261598
H -2.5425101114 0.5790967539 0.6252396541
H -2.4376424876 -1.1121325824 0.0940110242
H -1.1103634895 0.3568229732 -1.3392907083
H 0.2559086198 2.1268029459 -0.2700400487
H 0.3552442759 1.1504922902 1.2186492503
H 3.2205122856 -0.3878536594 -1.2910715304
H 3.1232458524 1.3765592368 -0.7346768567
H 0.5121856024 -1.60555686 0.3458033711
H 0.4667818172 -1.5550454019 -1.4361579596
