13
0
C 2.2831543772 -0.19015257 1.6774083724
C 1.1907087548 -0.0731437384 0.9816593475
C 0.0931193188 0.0335344388 0.2854238977
C -0.6460617236 1.235781851 -0.104640827
C -1.7035564971 0.8379924166 -0.8094365822
O -1.81889034 -0.4996391767 -0.9762971725
C -0.7058979777 -1.1146465915 -0.3085866526
H 3.259267009 -0.1854632936 1.2023360486
H -0.3779851609 2.2502138522 0.1380481317
H 2.2573941623 -0.2931677269 2.7579257258
H -2.486975923 1.4217635343 -1.2707843455
H -0.1363793631 -1.6864480902 -1.0432844538
H -1.0931956369 -1.7947569058 0.45204851
