17
0
O 1.9569687418 0.9295472859 -0.2931078706
C 1.2637510778 -0.2561992316 -0.1083800194
C -0.0035219228 -0.2901489518 0.7165883822
C -0.6390909956 1.0518564452 1.0359151038
C -1.2917945264 1.4487903876 -0.2925836057
O -0.5613650912 0.7676374344 -1.3165473669
C -0.0620986118 -0.4277552548 -0.7784669153
H 1.4939483922 1.4171892448 -0.9843364907
H 0.9692315115 -3.7647524935 -0.1043893848
H 1.9158882306 -1.1190986984 -0.0370638881
H -0.178030693 -1.1369423708 1.3661327689
H -1.3743409119 0.9617703828 1.8349579013
H 0.1147370543 1.7797110486 1.3417129397
H -1.242017789 2.5167510697 -0.5072586419
H -2.3403242952 1.1309329197 -0.3272410815
H -0.3494329751 -1.3276939008 -1.3077860338
H 0.2538228039 -3.9015473171 0.0517372029
