17
0
C 2.0434661006 -0.0725139399 0.0583803627
C 0.6210388699 -0.4566265431 -0.3200019483
C -0.1904160889 -1.1129512753 0.7721323421
C -1.4644827082 -0.7434214013 0.7269236671
C -1.7105450452 0.2241121103 -0.4025696299
C -0.293259118 0.7235387429 -0.7328489824
O 0.005958361 1.9137867961 -0.0286575599
H 2.0628524975 0.5817196241 0.9308072133
H 2.5377313075 0.454550693 -0.7593628371
H 2.6310548601 -0.9628364756 0.2918990944
H 0.229838205 -1.8252595029 1.4727836492
H -2.2455662997 -1.1076647627 1.3826925592
H 0.6674377709 -1.1485617251 -1.1719744211
H -2.1571701529 -0.292534675 -1.2596186721
H -2.3718361466 1.0551523577 -0.1489580344
H -0.1712275441 0.9809709965 -1.7855558186
H -0.137624869 1.7512519801 0.9078740158
