17
0
C 1.8035320378 -0.1384782143 0.9288023275
C 2.1247414044 0.779950108 -0.2057594252
C 1.1655745347 -0.3601279405 -0.4084390078
C -0.2830238181 -0.0520480302 -0.6125118288
C -1.4752628459 -0.7787276634 0.2429771916
C -2.3618514025 0.5090194111 0.0166606583
C -0.9739624286 0.8817711076 0.231541956
H 2.5580210432 -0.8446253049 1.2494462633
H 1.1607928821 0.2553130589 1.7059512081
H 3.1000999623 0.7181895423 -0.6699815017
H 1.5351906324 -1.1976329765 -0.9890468689
H -0.6066513792 -0.1984037784 -1.6504420662
H -1.2705733973 -1.1333083161 1.2433237199
H -1.8309557784 -1.5622559577 -0.4146607695
H -2.7904538692 0.430417173 -0.9872410312
H -3.0867625226 0.8050493183 0.7680852263
H 1.6903789449 1.7712474625 -0.1689340517
