11
0
O 2.7160483024 -0.8634935463 0.1206821336
C 1.4524318957 -0.5216390161 0.0683663751
N 1.2831343302 -1.76155577 0.0518119858
C -1.5305544864 -0.2187092488 -0.0430174792
C -0.5357971384 0.8878889264 -0.0020685451
C 0.7890265727 0.7605028657 0.047519649
H -1.0718068562 -1.2045542273 0.0130580266
H -2.2374151412 -0.1131807176 0.7833365198
H -2.113363673 -0.1583082659 -0.9656263659
H -0.9387108623 1.8967915826 -0.0165524808
H 1.4441540564 1.6218984173 0.0738371809
