8
0
O -1.438400141 0.4124819972 -0.5113469919
C -0.6094722296 0.1606262156 0.628850164
C -1.2198450964 -0.8873609142 -0.2047419961
C -1.303438441 -2.1756737763 -0.3043509177
C 0.7866821654 0.4764079695 0.5202711454
C 1.9475420802 0.7564794441 0.4667647118
H -1.0924574236 0.3626808514 1.5792074805
H 2.9829790861 0.9999762126 0.4078004039
