19
0
C 2.3176130929 -0.2927126046 -0.2348288417
C 0.8832594937 -0.0464198575 0.1842642425
O 0.7860977645 -0.3256905223 1.5638950024
C 0.4453427801 1.3828046894 -0.0977013882
C -0.2698003032 1.7902091356 -1.3277583572
C -1.0094521327 1.6705677423 -0.0441126856
C -2.4184378927 -1.6985832878 0.6194283154
H 2.4455064684 -0.0953299244 -1.2999898534
H 2.5916398205 -1.3285963438 -0.0329364343
H 2.9887019552 0.357881996 0.3287247836
H 0.2259403688 -0.7195615863 -0.3854282164
H -0.092607819 -0.0704309628 1.858611941
H 1.0550774832 2.1315695146 0.40517637
H -0.5563332235 1.0459272784 -2.0676684023
H -0.138982323 2.783058152 -1.7442460296
H -2.410423626 -0.6082740105 0.5727002624
H -1.4862643798 -2.0616028797 1.0520495371
H -2.5333649771 -2.1047155265 -0.3848626005
H -3.2539345503 -2.023516002 1.2375493549
