12
0
C -0.5024384808 -1.7280485573 0.255949106
O 0.2179868683 -0.2798913537 -2.222715834
C 0.1491493656 0.2629716188 -1.1409968138
N -0.3970041765 -0.3227375705 -0.0088363371
O -0.2019400178 0.4772322752 1.1058828748
C 0.3340946493 1.6177234314 0.6330052041
C 0.5590929862 1.5885515686 -0.6821795358
H 0.3771736499 -2.1042602143 0.7842247308
H -1.4024491925 -1.9428876134 0.8309693135
H -0.5694225321 -2.2071357951 -0.7195469748
H 0.4898511597 2.3778867054 1.3828722145
H 0.9867597207 2.3569225048 -1.3012909483
