11
0
C -1.4164256576 0.9028599287 0.4908469408
O -0.7754021615 0.0439907421 -0.4331488246
C 0.3642476429 -0.5189714189 0.0688988304
C 1.4493729023 -0.8102608497 -0.8462568646
O 1.5261164933 0.2759907581 0.0788392803
H -1.6909065156 0.363224551 1.4049116397
H -0.7724004062 1.7476315795 0.7505920791
H -2.3203086961 1.2714497319 0.010432741
H 2.1279399457 -1.6354761151 -0.6527992368
H 0.2167507711 -1.1022324809 0.9794157115
H 1.3281066818 -0.5189004267 -1.884816297
