11
0
C -2.6120119909 -0.3636163536 -0.9022416563
N -1.489992812 0.0225475817 -0.1263674051
C -0.5599689917 0.3302277598 0.4894620355
O 2.7397709334 -0.4628819846 -0.341854034
C 3.0458408902 0.1671270894 0.6315346027
O 2.2099867223 0.7708590043 1.4624886824
H -2.7737817371 0.3673864739 -1.6927128411
H -3.4950177961 -0.4119208871 -0.2670636231
H -2.426677742 -1.3413788488 -1.3439092298
H 1.2843967183 0.6274544677 1.1585472217
H 4.0852958053 0.3224736974 0.9572732472
