13
0
N 2.084131825 -0.4671543447 -0.4142084319
C 1.0377371632 0.110904239 0.2843696789
O 1.5076167933 0.7934525345 1.3625119287
C -0.2393050605 0.0621752132 -0.0492862436
C -1.2690939457 -0.3850707167 -0.9781095733
C -1.5977960406 0.5434204497 0.1933463067
H 1.7894353407 -1.1695709677 -1.071160264
H 2.8378776188 -0.7765594457 0.1789393498
H 0.7546437993 1.1798008861 1.8159037224
H -1.3086273943 0.0451333672 -1.9743280406
H -1.6363363068 -1.4054340359 -0.9187520386
H -2.1754956328 0.1214931244 1.0105047647
H -1.8512301599 1.5719856966 -0.0466401592
