11
0
N 1.6472683028 -0.1095717495 -0.5227121134
C 0.3269574277 -0.2953774924 -0.2745709749
C -0.3833927451 0.8297498648 0.5227724539
N -1.405942052 0.1560233765 1.3653625683
C -1.8168879021 -0.6636793489 0.5443183786
N -1.7357565138 -1.3396821618 -0.4767792189
N -0.251903666 -1.3694041731 -0.6783322159
H 2.0702272807 0.7809254984 -0.3476730386
H 2.0945988323 -0.7210537197 -1.1817842723
H 0.3089073372 1.3473606793 1.1850403449
H -0.7999813018 1.5530902264 -0.1874269117
