14
0
C 1.7831287344 0.1899844747 -0.3480497113
O 1.2587056535 1.2908520435 0.3618979455
C -0.1122891688 1.4335959532 0.2686620914
C -1.7910783175 -1.702784578 0.8099942408
C -1.2887744177 -0.6188508517 0.2423667425
O -0.8228506756 0.4324257976 0.9592556032
H 2.8674904096 0.258521255 -0.2855572411
H 1.4833998938 0.2229140477 -1.40375388
H 1.458908761 -0.7607501825 0.0851455337
H -0.3555256649 2.3784197761 0.7513483434
H -0.4360373467 1.4435579943 -0.7844847252
H -1.8335811767 -1.808092657 1.8859771361
H -2.1746593022 -2.4997322973 0.1903594975
H -1.2409743822 -0.4986227756 -0.8389775763
