17
0
O 2.3929519327 0.3866867845 -0.3361071485
C 1.4566906211 -0.4727399737 0.2533414342
C 0.2037776195 -0.6049751235 -0.5699016115
C -0.9439326096 -1.4160827787 0.0285763828
C -1.6640411907 -0.0865718465 0.2799306626
C -0.3562799799 2.0496552397 -0.0543687534
O -0.6673747012 0.6263576647 -0.4966068432
H 2.0009618682 1.2695084786 -0.3386738218
H 1.198582699 -0.1622670995 1.2754400826
H 1.915036771 -1.4632953439 0.3201522844
H 0.4408203707 -0.7694456556 -1.6199052395
H -0.6879993862 -1.9791839651 0.9241744706
H -1.4422581942 -2.0674941521 -0.6845401687
H -1.6424345359 0.2731366183 1.3073822902
H -2.6494266857 0.0645992286 -0.1550151933
H 0.359750617 1.930538552 0.7751638354
H 0.1608947843 2.4566133723 -0.9316816627
