14
0
O 1.8609342709 -0.1374622885 0.363375813
C 0.8663503186 0.1579651345 -0.565589193
C -0.3688977113 0.7163832617 0.0743186742
C -1.3827186035 1.0220812938 -1.008213459
O -1.2574791027 -0.3119353183 -1.5584579062
C -0.3744154133 -0.6719002334 -0.5089693842
H 2.3377434858 -0.9144875066 0.064476242
H 0.8854839763 -1.2388908222 2.5711821692
H 1.2036637554 0.5417637185 -1.5280996742
H -0.3747380789 1.0480844969 1.1016154939
H -2.393936984 1.181078729 -0.6275859982
H -1.1298090117 1.7953504618 -1.7387387059
H 0.6771391664 -1.7135475329 3.1080929187
H -0.4449310676 -1.6541383943 -0.0591679906
