16
0
C 2.4465461749 0.4278497574 1.6348696637
C 1.362734474 0.067429502 1.0113539158
C 0.2799875105 -0.3009796664 0.4048059989
C -0.0802835205 -1.4198988374 -0.579346862
C -1.5367508512 -0.9663811801 -0.4481667709
C -1.1574721083 0.115581126 0.4977321454
N -1.5782101563 0.4300651386 -0.8840666466
H 3.0851777401 1.2095370171 1.2388020922
H 2.7431114603 -0.039843622 2.5672620404
H 0.0996918818 3.3008060774 -0.6177785495
H 0.1041568343 -2.4065181307 -0.153771491
H 0.345405723 -1.3506126285 -1.5802264587
H -2.4222841627 -1.5856799951 -0.4623619315
H -0.1672438063 2.6516040572 -0.8733157259
H -1.6774735788 0.5283265555 1.3501508901
H -2.5432256152 0.7455538289 -0.8402403103
