10
0
N 2.044038934 -0.042903384 0.2441574743
C 0.7655674741 0.1811569083 0.4871032068
O 0.0418829649 -0.5296808283 -0.3741746762
C -1.3661427659 -0.3269476552 -0.2012655112
O -1.7397631058 0.9666744758 -0.4919162736
H 2.3591627797 -0.6579762815 -0.496650402
H 2.7328333563 0.4158742447 0.8094434035
H -1.8500585261 -0.9877025382 -0.9173164367
H -1.6145326982 -0.609837719 0.8261162353
H -1.3130104131 1.5329977775 0.1611999798
