12
0
O -0.0431509079 1.502656604 -0.8579514375
C 0.1173452204 0.29381777 -0.183069292
C -0.7831467102 -0.8038556166 -0.6346764124
C -0.9875234214 -0.1704580324 0.7176162407
C 2.0674548152 -0.2536225495 1.3023006848
C 1.5435309238 -0.0154027092 0.145334059
H 0.137517671 2.2177577621 -0.2423972773
H -1.4811825123 -0.5449033108 -1.4191691077
H -0.3809084748 -1.806829802 -0.674328933
H -1.8256420786 0.5046756092 0.825464092
H -0.7408434178 -0.7454494182 1.5997085227
H 2.2803918926 -0.0337913066 -0.6639691393
