13
0
C 1.9998805617 0.0363641113 0.182974689
C 0.6404975634 0.3239026575 -0.3900479317
O 0.4215503814 1.0800722476 -1.2912100037
N -0.4061367616 -0.3705697888 0.2663834338
C -1.7863551795 -0.3688762366 -0.262791959
C -1.6764134463 0.4540593591 0.9578618358
H 2.7415946741 0.6296899015 -0.343627472
H 2.0137229829 0.282850128 1.2464436311
H 2.2413875722 -1.0237557709 0.0788527592
H -2.2436823746 -1.3535974628 -0.1931384893
H -1.8157281202 0.0547061188 -1.2648984735
H -0.1329794039 -1.131252191 0.8664421994
H -1.4562354493 1.4769239259 0.621173781
