15
0
C -1.3139237091 0.3417641923 -0.8444784167
C -1.6245919616 -0.1093405507 0.5533217429
C -0.2033761515 0.0936032405 0.1617760759
C 0.8003748552 -1.0384469841 -0.0345562955
C 2.0328811952 -0.2482342478 -0.3268379068
O 1.8745123542 0.9527578482 0.1944379493
C 0.6572010196 1.2012304149 0.6111416816
H -1.4231564653 -0.374788288 -1.6494068417
H -1.538322823 1.3669695409 -1.1103785715
H -2.0672741323 0.6078884707 1.2329260174
H -1.9607767651 -1.1288272751 0.6982895289
H 0.9164112697 -1.5996412811 0.9120180645
H 0.5132707916 -1.7467589384 -0.8117794794
H 3.053674691 -0.5783459684 -0.4295487184
H 0.4183808313 2.2326968261 0.8152021698
