12
0
N 2.6369884368 1.2901494571 0.7527741364
C 1.8436391965 0.5038467555 0.4946876581
C 0.8353644326 -0.5063335976 0.125781975
O -0.0204730186 -0.7399482198 1.2474954179
C -1.2197700046 -0.1496238421 0.9553319039
C -1.3353369976 0.2964816526 -0.2830650168
C -0.0682539771 -0.0227136567 -1.0329456115
H 1.3572948118 -1.4364738988 -0.0982999238
H -1.9228906878 -0.1378955596 1.7744914538
H -2.2051544116 0.7719083504 -0.7059520084
H 0.3654890287 0.8359838152 -1.5448523075
H -0.2199748089 -0.8132582563 -1.771868677
