15
0
C 2.1367124249 0.6369944092 0.7875689758
O 1.4540777449 1.2831539195 -0.2703561705
C -0.4923684299 -0.72471746 -1.0410321085
O 0.351763737 -1.4261539383 -1.510707939
C -1.3472131299 -0.4131354784 0.1184734376
C -1.5309263989 0.2828208435 -1.2546472275
O -2.3398279497 -1.3091090744 0.5066805843
H 1.9752620289 -0.4462782913 0.7737246987
H 1.7386876577 1.039673718 1.7186579757
H 3.2127933763 0.8359077657 0.7594397632
H -0.9400040382 0.2249597825 0.8993414129
H -2.3884864956 -0.0259148208 -1.843782104
H 1.7654903409 0.9130701759 -1.0987820883
H -1.2680982231 1.3321950172 -1.3057939446
H -1.9217686452 -2.1027835684 0.8474527342
