15
0
C 1.8609333856 0.0407916552 0.9353677107
C 0.559334257 0.6038123466 0.5348802475
C -0.5665349094 -0.8934076575 -1.2090108547
C -0.7045409594 -0.0313497817 0.024627077
O -1.2971619686 -0.824047291 1.0493241178
C -1.2376846074 1.4059641369 -0.208366413
O 0.2623699406 1.8047853833 0.5609949159
H 2.5146158924 0.8080290045 1.3451743148
H 2.3276302492 -0.4230973489 0.0625122821
H 1.6857046546 -0.752179717 1.6656149959
H -1.563610505 -1.108022136 -1.5947483473
H -0.0724119434 -1.8386003788 -0.9737818547
H -1.8028129122 -0.2368133208 1.6162670912
H -0.0114899282 -0.365811787 -1.9847150303
H -1.9158736458 1.6648358923 0.6227837471
