10
0
O 1.8572205191 -0.3263623063 -0.4593215573
C 0.6753877361 -0.0639001308 0.2363326797
C -0.3895053221 -1.1358419598 0.2230825053
N -1.4532844745 -0.4263905266 -0.0004356655
N -1.3130561623 0.9749554281 -0.2648126055
C -0.0614914568 1.1741050359 -0.192972426
H 1.9810430077 -1.2793103436 -0.4500429057
H 0.864517169 0.0773624263 1.3218878825
H -2.3982308936 -0.77314839 -0.0466669825
H 0.3564988773 2.1579917668 -0.356237925
