13
0
C -2.28006806 0.3887785999 -0.379795774
C -1.1587453923 0.1269526664 0.5856175477
C -0.0064632841 -0.385442352 0.2609743473
C 1.1453555885 -0.8938189376 -0.0714647207
C 2.345537657 -0.0927056974 -0.4906879794
H -2.5496450936 1.4477671701 -0.3829531568
H -3.1736254929 -0.1725278538 -0.0958254829
H -2.0006492305 0.1017218828 -1.3929070882
H 1.254500519 -1.975622721 -0.0410919144
H -1.3305985315 0.3809802062 1.6291250721
H 3.1858139013 -0.2739700031 0.1838410177
H 2.6684845712 -0.37634455 -1.4953055633
H 2.1254738477 0.9743185897 -0.4878403051
