11
0
N 2.87484435 0.7248167019 0.1193853109
C 1.6773574127 0.4535441361 0.1894963459
C 0.4471159182 0.0235226037 0.1985315035
C -0.6547662657 -0.1691562647 -0.8087993919
C -1.4491717828 -0.6242136782 0.4277325574
O -0.3091063118 -0.3956533756 1.2900353355
H 3.0708961592 1.7189907605 0.2409908
H -1.0188167136 0.7380972231 -1.2876281013
H -0.4711629428 -0.9369347515 -1.5583825997
H -2.2901399861 0.0101185569 0.7119505427
H -1.7483988372 -1.6731889123 0.4419846969
