8
0
C -2.03778599 -0.0647501612 -0.0172438636
N -1.1488526392 0.6933525112 -0.2583275889
N -0.2748718641 1.5575266012 -0.336487074
N 1.0305969736 1.0452218763 -0.1633356877
C 1.259515363 -0.1069803913 0.1880351703
N 1.5926080166 -1.2574738666 0.3943979765
H -2.5572247511 -0.6913539873 -0.7298456458
H 1.7184048912 -1.5578745823 1.3525057132
