15
0
O -1.6389136238 1.6007573694 -0.0970900007
C -1.6620703459 0.3734217184 -0.7884535873
C -1.1348104609 -0.6993279083 0.1254295765
C 0.7001051208 -0.5283806457 1.5699033165
O 0.2712225124 -0.4918910424 0.3451600888
C 2.1649568127 -0.2539616729 1.5608851159
O 2.8332325676 -0.0726638166 0.3373488759
H -1.8397660182 2.3118073113 -0.7062393428
H -1.0486521393 0.4104882157 -1.6972944427
H -2.6826442809 0.0925550381 -1.080334127
H -1.2445085435 -1.679519403 -0.3419705605
H -1.6288210904 -0.6856595732 1.0970414258
H 2.2740986378 0.6295102575 2.2101135103
H 2.6284176614 -1.0802651664 2.1142194416
H 2.16362119 0.0357243182 -0.3430962906
