18
0
C 3.0340497879 0.6730746082 -0.2377306516
O 1.6886672224 0.9462919436 0.0450135762
C 0.829907909 -0.1505443131 -0.1945578299
C -0.1862552439 -0.3427801847 0.9395297886
N -1.1885741411 -0.6814167086 -0.1403208871
C -2.6283596881 -0.516147548 0.0586655054
C -0.3933246278 0.2359374667 -1.0411425962
H 3.6116076254 1.5654489598 0.0185608543
H 3.186465913 0.4421400449 -1.2989757678
H 3.4029098333 -0.1772415617 0.3469120769
H -0.9504191765 -1.6241072864 -0.4409339355
H -0.0756293425 -1.1225234814 1.6968977805
H -0.5488513489 0.5921707005 1.4036873543
H -2.8317199126 0.5028767075 0.3779641046
H -2.9716814139 -1.2123312816 0.8237959917
H -3.1501878812 -0.7127148203 -0.8778728215
H -0.7837419508 1.2533230396 -0.8586640388
H -0.4754405635 -0.0149742849 -2.1015495041
