10
0
N -0.9161090404 0.9336088598 -0.5517429687
C 0.0149443735 0.1423048147 -0.0808028334
O 1.208725958 0.7671993847 -0.2643842229
C 2.296064389 0.0621885611 0.1803425698
O 3.3920313892 0.4973138915 0.0824293991
C -2.7488580172 -1.4808372641 0.4860380706
O -2.7105827 -2.4753858949 1.0041459478
H -0.7199698876 1.8367879943 -0.9672177969
H 2.0006216828 -0.9042576652 0.6114100265
H -1.871012147 0.6211793183 -0.4929351918
