19
0
C 2.0467332175 0.9417276773 1.0232742201
C 0.8290464391 0.0422588789 1.2018403839
C 0.4423770482 -0.6228002778 -0.0890009169
O -0.87267055 -1.1762955827 -0.1769561974
C -0.5433502585 -0.0545461553 -1.0041652804
C -0.5252734327 -0.3023218229 -2.48133005
O -2.6395273684 0.1998457291 1.5568095298
H 2.9081268987 0.380491211 0.6529831221
H 1.8411623056 1.743061928 0.3101734997
H 2.3346364582 1.4018125933 1.9690691028
H 1.0395322677 -0.7318328519 1.9458309335
H -0.0241431398 0.6133265146 1.5757697788
H 1.2001706533 -1.2729600862 -0.5264611632
H -2.1269214849 -0.4459268845 1.0472357111
H -1.0337330181 0.8625108439 -0.6807325243
H -0.0152821246 -1.2387966153 -2.7098081685
H -1.5422317517 -0.3584090713 -2.8733955709
H -0.0092862369 0.5122591623 -2.9936944611
H -3.225918923 -0.3135761904 2.1121550514
