14
0
C -0.7938846614 -0.3989771394 0.8558832507
C -0.6778985094 0.1974376067 -0.558963649
C 0.3602840729 1.3066533409 -0.2659543133
O 1.2307879156 0.6944365401 0.6822177011
C 0.7142781955 -0.6213531605 0.8896238187
N 0.9765150679 -1.3968157177 -0.3424095509
C 0.157219659 -0.897820785 -1.1771329536
H -1.3721319577 -1.3205354003 0.8862550317
H -1.1378350308 0.3030546983 1.615100543
H -1.5748890325 0.5174458909 -1.0817969328
H -0.1083251347 2.1887714669 0.1790122526
H 0.9245447256 1.6086267575 -1.1518131528
H 1.1842787843 -1.0476640288 1.7695926979
H 0.1450849054 -1.1910860698 -2.2238847434
