21
0
C 1.9527608121 -0.8661808024 -0.1471396145
C 0.7207727361 -1.2890751096 -0.9337013424
C -0.1069841347 0.9134138764 1.1222164244
C 0.3141644995 2.2550390639 0.693239232
C -0.312586749 -0.1809387093 -1.1105015947
C -1.062191774 0.2807302753 0.1772874827
C -1.8635825096 -0.8515949041 0.8124972213
H 2.6674944514 -1.6858705773 -0.0542104204
H 2.4629878746 -0.0314864581 -0.6359062948
H 1.6788213136 -0.5455448914 0.8644170623
H 1.0231661099 -1.6217287564 -1.931386133
H 0.2569409347 -2.1575905424 -0.4584431848
H 1.3312590839 2.500871477 1.0021847883
H -0.3270665643 2.8763281629 1.3419923667
H 0.1279373088 2.558473041 -0.3476079687
H 0.164856739 0.6852508373 -1.5778652229
H -1.084864771 -0.5178988203 -1.806836593
H -1.7569535705 1.0610945831 -0.1805284782
H -2.4600293554 -0.4747959817 1.6443395723
H -1.1998580896 -1.6175302747 1.2154175899
H -2.5403023455 -1.3181164892 0.0911041074
