12
0
C -1.6700405292 0.0576230283 -0.7985028054
O -0.8798202142 -1.0962979615 -0.6406674676
C 0.2050570259 -0.9101221896 0.2075171332
N 1.1765597582 0.0162722261 -0.3422671048
C 1.7191388529 0.8248021988 0.4523078226
H -2.0326249411 0.4255506968 0.1711629381
H -1.1163633138 0.8599535782 -1.2965253549
H -2.5240976162 -0.2209982313 -1.4134027594
H 0.689663002 -1.8842900511 0.2985426196
H -0.1385022735 -0.5806241661 1.2064613279
H 2.4764640748 1.5134603763 0.0820767914
H 1.469821174 0.878951495 1.5208088593
