14
0
O 1.2373709792 -0.3597557076 1.458823481
C 0.4527194184 -0.315572632 0.2201634224
C -1.0645089053 -0.3940412316 0.3481393937
C -1.1484029448 0.6196608753 -0.818518723
C 0.3411305791 0.9730769205 -0.5857469514
C 1.4467876335 -1.3776338742 0.0188288708
H 2.0184086534 0.1903701018 1.3386980115
H -1.4059096346 0.0363090853 1.2909420589
H -1.5173128255 -1.3758695706 0.2141380145
H -1.866628352 1.4299266172 -0.7107856551
H 0.9994564372 1.0524888091 -1.4497916547
H 0.4485343523 1.8591688714 0.0443659239
H 0.9978596371 -2.2973125435 0.4263986564
H -1.3068600282 0.1312332791 -1.7791058489
