11
0
N 2.1792102472 0.0235472199 0.0001730432
C 0.9453804192 -0.1333726842 0.0684460608
C 0.0831347157 -1.3112601843 0.0945900455
C -1.1787912464 -0.8718774632 0.1753836711
C -1.2124424861 0.5880000957 0.2059662959
N 0.0063700412 1.0419561975 0.1448594474
O 0.4588256945 2.2025032841 0.1414445309
H 2.3758702781 1.0320294838 0.0079423387
H 0.4468880156 -2.3242817443 0.0533236429
H -2.0711623324 -1.4790273944 0.2133303755
H -2.0582713466 1.2529281893 0.2679845482
