11
0
O -1.7031652139 -0.7853527924 -0.6779553925
C -1.031578864 0.355471017 -0.2955585116
C 1.2522998691 0.9055409073 0.8353528842
C 1.049460565 -0.5415070231 0.6038475001
O 0.3854639918 0.1910609028 -0.4642552516
H -1.6743687406 -0.8719985967 -1.633360334
H -1.276070131 1.2281605115 -0.9045976795
H -1.235280384 0.5452624657 0.7568411085
H 2.1537320508 1.1839408192 0.2696866668
H 0.3397695009 -1.0801605623 1.2305177221
H 1.8041993558 -1.1996806488 0.1752692874
