12
0
C 1.0678828476 -0.3157372824 -0.7102690534
C 0.3643303453 0.9713951968 -1.0526087608
C -0.932309837 0.6626838823 -0.4004207636
O -1.1622590259 -0.7718879098 -0.4643602859
C 0.0551001982 -0.8673147204 0.3012924454
C -0.3242488848 0.4317273157 1.0365392612
H 2.0886770301 -0.1515291677 -0.3618162985
H 1.1181536551 -0.9274073725 -1.6194433571
H 0.467902681 1.0790434483 1.4121749591
H -1.8153215468 1.2674592678 -0.5781751322
H 0.2023333029 -1.8301353922 0.7856541215
H -1.1360717656 0.3248277343 1.7531748644
