19
0
C 1.7001833721 -0.4293627943 0.6157909308
C 1.4641494763 0.1410748034 -0.7803750057
C 0.5443151568 -0.7047236636 -1.6074032539
O -0.7290541202 0.4674403907 3.1295910023
C -0.4738162856 -0.253035124 -2.3265666384
C -2.1425774331 0.3499558545 0.2858030106
O -1.7929907912 1.4336654282 0.6718774917
H 2.3960345572 0.1959226296 1.1782666261
H 0.7728805724 -0.4915757124 1.1885000387
H 2.1286516941 -1.4329680887 0.5614950029
H 2.4252949134 0.215491952 -1.3013620648
H 1.0643639745 1.1566536833 -0.7161892174
H 0.7575263878 -1.7727126074 -1.6138950776
H 0.1130247255 0.7967626312 3.4444380752
H -1.0865531303 -0.9175562252 -2.9242679097
H -0.7156000134 0.804961545 -2.359501268
H -1.8345331222 -0.5756294105 0.8011158615
H -2.79440982 0.2374906028 -0.596447404
H -0.9819131142 1.0499711053 2.3996657998
