14
0
C -2.351278806 -0.0376092664 -0.0597079131
C -0.9030451661 -0.3772749144 -0.2220564301
C -0.5044262304 -1.500870363 -0.8325237076
O 1.1657421214 -1.3020985004 -0.689211132
C 1.3950440083 -0.2333629294 -0.0937533262
N 2.6384669487 0.1670767178 0.1561894095
C 0.1752713793 0.5276664278 0.2966934668
H -2.6310175072 0.0517356126 0.9949071651
H -2.9639225471 -0.8201867349 -0.5064545094
H -2.604027391 0.9100447862 -0.5458717733
H 0.1473547662 0.6776708355 1.3819760526
H 3.4102214854 -0.405466635 -0.138608336
H 2.8200875607 1.0269393819 0.6379673742
H 0.1816713776 1.5219655815 -0.1643063405
