12
0
O -0.3402166436 1.031531912 0.7939228131
C -0.7464842965 0.1252331461 -0.1669293528
C 0.4238574236 -0.7662195395 -0.5237902809
C 1.4978445563 -0.2188271341 0.3758203544
C 0.9785211789 0.7793641781 1.0699076319
C -1.9854558947 0.1281512632 -0.6294366597
H 0.6769108505 -0.6839736986 -1.5840240142
H 0.1988931866 -1.817173536 -0.3248071833
H 2.512190352 -0.5771058429 0.4412663062
H 1.4139224023 1.4281648712 1.8143543838
H -2.7142522176 0.8407203784 -0.2696222236
H -2.2827988977 -0.5891189976 -1.3805957749
