14
0
C -2.3652238401 0.5199134955 -0.1710797391
O -1.0045011114 0.279244781 -0.4625280335
C -0.4075064404 -0.6593780872 0.3090008088
C 0.9078471689 -0.8342696049 0.3517983586
C 1.9129670067 0.0018445437 -0.3744243349
O 2.8731500256 0.5631414854 0.5099708935
H -2.9508542255 -0.4032132237 -0.2310506858
H -2.4846752878 0.9591337108 0.8243917572
H -2.7291310545 1.2224674583 -0.9178001179
H -1.0835189791 -1.2913945344 0.8818380254
H 2.3971398218 1.0559470321 1.1813192121
H 1.2838825038 -1.6359485278 0.9764417655
H 1.4083537769 0.7803442244 -0.955078293
H 2.4890636351 -0.6109987533 -1.0710336169
