14
0
O -2.0134598094 0.3098139678 -0.6762907237
C -1.2882211072 -0.5837637622 0.1317775501
C 0.1911539847 -0.2479469453 0.205202236
C 0.8736672724 -0.1425825644 -1.138282489
C 1.2263047924 1.370268256 1.6796229094
O 0.2747330456 1.0550608199 0.8733140824
H -1.9674973394 1.1809725494 -0.2743593611
H -1.6968533717 -0.6225156413 1.1487218035
H -1.4009951651 -1.5749845627 -0.3121551415
H 0.7015427749 -0.9661162307 0.8556247234
H 0.8267397615 -1.1037050858 -1.6526700472
H 0.380089046 0.6038245257 -1.7593413428
H 1.9227950728 0.1296794907 -1.0146479881
H 1.9075480425 0.4746431828 1.7474417883
