12
0
C 1.026730956 -0.3465277518 -0.2680888429
C 0.1642631516 0.9558395841 -0.3212478159
C -0.777096964 0.5959493832 -1.4643188935
O -1.0766154248 -0.6396418181 -1.1516818583
C -0.3340915576 -0.9353732466 0.098929117
C -0.6285607064 0.3445027406 0.8789636874
H 1.7311188676 -0.3369745832 0.5618855996
H 1.4947714179 -0.7038406479 -1.1845669158
H 0.5909136662 1.9528318978 -0.3081291298
H -1.6740758158 0.6197417959 1.0126162237
H -0.5372667611 -1.952943203 0.417668862
H -0.0757938295 0.4157708488 1.8141199665
