14
0
O 2.3214880025 -0.501622716 1.0997606758
C 1.1978138298 0.0910132469 0.5386140976
C -1.1767990281 1.955649743 -1.2426307638
N -1.3835339731 0.8865319343 -0.5251528723
C -0.9808588059 -0.4907683582 -0.7894968982
C 0.2664606747 -0.941703272 -0.0489440646
O 0.5299889212 -2.1153277187 0.033227662
H 2.2161960248 -1.4560696276 0.9861144427
H 0.6414700456 0.6748814385 1.2850538838
H 1.4723080125 0.800318602 -0.2546915115
H -0.6308471346 1.621172463 -2.1490255278
H -1.8857485607 1.0117023372 0.3453355912
H -0.7713090206 -0.585938475 -1.8574537747
H -1.7873329883 -1.1849005973 -0.5470709399
