20
0
C 2.639976933 -0.1417796561 1.1058783314
C 0.187865169 -0.7285210033 -1.560794427
C 0.4757119409 0.7429697635 -1.7443171758
N -0.6173122327 0.3435184272 -0.8873479477
C -1.9746981118 0.7873346763 -0.7111396575
C -1.043407804 0.6264536001 0.4589810052
C -1.1564015002 -0.5333209377 1.3999596813
H 2.1175370988 0.7192058777 1.52611249
H 3.5860793147 0.1921577147 0.6807586319
H 2.8397209222 -0.8600188641 1.900596249
H -0.4344396489 -1.0685397919 -2.3967005514
H 2.0319735972 -0.614074876 0.3299593939
H 0.1492629324 1.3135293575 -2.6128605468
H 1.3244459215 1.1805899591 -1.222505586
H -2.730835764 0.029324044 -0.8776744612
H -2.2137632718 1.78404998 -1.0619797335
H -0.635698652 1.547086544 0.8646195812
H -1.8614127644 -0.3051869809 2.2007419374
H -1.493794387 -1.4229524764 0.8680384163
H -0.1845136931 -0.7592283575 1.8389603693
