13
0
C -2.2527692758 0.253554579 0.3888695227
N -0.8115350751 0.2287342979 0.4214570716
C -0.203719452 -0.4339087411 -0.4560082898
C 1.2847944683 -0.5347602214 -0.4744450879
C 2.1158308043 0.4520115924 0.214375718
O 1.9258805743 -0.8374878123 0.7555850961
H -2.6819187242 -0.3068631619 -0.4526350388
H -2.5906445507 1.2903987389 0.3364135755
H -2.6363280903 -0.1604526144 1.3234417475
H -0.7359205298 -0.9750159174 -1.2514728715
H 1.7006322849 -1.0584236062 -1.3316083253
H 3.1146158155 0.6606506568 -0.1590978811
H 1.6118897507 1.2522122096 0.7472737631
