16
0
C -2.7021007242 0.7585876722 0.5326794766
O -1.4936674983 0.0493088076 0.4909805543
C -0.745100025 0.3206666445 -0.6631689082
C 0.5582562107 -0.4270171075 -0.6052945805
N 2.9972247691 -1.3678565846 -0.0593521768
C 2.5752000479 -0.3702463734 0.5856244499
O 1.3815653099 0.1844540477 0.3860917917
H -2.5319762147 1.8433835446 0.5306825167
H -3.3476124921 0.5067693107 -0.3197870449
H -3.2122238683 0.4824453838 1.4543493749
H -0.5531105142 1.3993958956 -0.757101453
H -1.2922824987 -0.0014471538 -1.562229754
H 1.0664775296 -0.3913037988 -1.5721582675
H 0.3933305834 -1.4754677252 -0.348506203
H 3.9261374683 -1.6249864927 0.2528939529
H 3.1047749166 0.1691029293 1.3732372709
