16
0
C -1.0440377473 -0.3243835379 1.2845365146
C -0.6997483467 -0.7076638901 -0.1419041233
N -1.4249054702 1.4643131831 -0.9373088107
C -0.742482257 0.4241665418 -1.1421135806
C 1.9814765271 0.4267179062 0.2189524381
C 1.7059110832 -0.8426394753 -0.056513184
O 0.5149944318 -1.4460874141 -0.2585986823
H -0.3298054338 0.3800900561 1.7057470482
H -2.0266441066 0.1450794129 1.3002575131
H -1.0634996853 -1.2196168774 1.9060183123
H -1.4466808303 -1.4292825167 -0.4908282084
H -1.3853453437 2.090772856 -1.7376216404
H -0.1786622025 0.2327523717 -2.0628238133
H 1.2356539633 1.1982598251 0.3426167581
H 3.0185770067 0.7087889003 0.3307155433
H 2.4982394111 -1.5748743416 -0.1668850846
