16
0
C 1.5183240238 -0.0260454141 -0.7538504386
C 0.9198527751 0.1369272264 0.6305790178
C -0.2701175688 1.0635422268 0.7933674868
C -1.0834450581 0.1053707034 1.238576345
O -1.9726618865 -0.2184152252 -1.9521470265
C -0.0485853965 -0.9887958274 1.1225852399
H 2.0157048373 0.8907967499 -1.0785929801
H 0.7453606607 -0.2733586987 -1.4856793852
H 2.258473348 -0.8291631854 -0.7645651033
H 1.7068619523 0.3421015436 1.3623989974
H -1.7092531656 0.1245148324 -1.0909569701
H -0.3930901861 2.1285019267 0.6293288953
H -2.1122064442 0.0999124018 1.5795640678
H -1.7344458867 0.4684660095 -2.576450461
H 0.2357287671 -1.4818810288 2.0544222703
H -0.2612707719 -1.7494242407 0.3677160445
