16
0
C -0.5607991144 -1.4139239375 -0.6590140258
C -0.1355507152 0.8752385439 0.2366396747
C -1.2156793192 1.9017157295 0.0330202698
O 0.4666986388 0.8016180584 1.2861552367
C 0.1458451862 -0.0767292309 -0.902570266
O 2.2661759886 -1.3955042933 1.2478033226
H -0.3757539668 -2.0937160703 -1.4905243144
H -0.1781917813 -1.8804638633 0.2485249121
H -1.6416101837 -1.2857196185 -0.56253399
H -2.115750564 1.4313325729 -0.3692737814
H -1.4397711046 2.4125594557 0.9665051745
H -0.8788112695 2.6286732954 -0.7108357006
H 1.7250820937 -0.6055681845 1.4040520166
H 1.2235129463 -0.2417106018 -0.9527506194
H -0.1873921632 0.3623367702 -1.8455972573
H 2.8210093284 -1.4891376259 2.0218663478
