14
0
C -1.3020944643 0.6690057506 0.917018643
C 0.5039979114 -1.8225529861 -0.8345504207
N -0.0249909808 -1.3461346505 0.2502498222
C 0.0697155244 0.0977253848 0.6087788022
C 0.7640599446 0.6666714602 -0.6155124651
C 1.1428618862 -0.5663567725 -1.4464115767
O 1.8380783205 -0.5489737002 -2.4196041298
H -1.2197601634 1.722594569 1.1870043556
H -1.7719542775 0.1484952703 1.754805566
H -1.9578835747 0.5861388736 0.0478614806
H -0.5297352474 -1.9532351649 0.8823443366
H 0.7055784769 0.1739663593 1.4951030947
H 1.653646668 1.2524354259 -0.3902788042
H 0.0954199761 1.2915111803 -1.2119457045
