13
0
C 2.24445786 0.199738761 0.2367588268
C 0.9338069038 0.1044471448 -0.0361159579
N 0.3101970262 -0.6727065356 -1.0082767052
C -1.0905172956 -0.6724652136 -0.7701426429
C -1.3140596278 0.2169502554 0.2016094232
O -2.4271451094 0.7117615028 0.774545165
N -0.1105241699 0.7662274558 0.6069599948
H 2.966086456 -0.3523656092 -0.34574568
H 0.7700741542 -1.520691643 -1.2870702488
H 2.5978321554 0.8515977651 1.0209844274
H -1.7808564465 -1.188604223 -1.4137072889
H -3.1913008506 0.235270923 0.4449620314
H 0.0052069441 1.2049464168 1.5018166554
