12
0
C -2.1021297225 0.2802690375 0.0381809875
C -0.8050865985 -0.0298405384 -0.1819491201
C -0.0981936181 -0.9567928907 -0.9960208015
O 1.3085631805 -0.8769090561 -0.5596301545
C 1.4000276129 0.1248797079 0.209961809
O 2.5485934259 0.568032512 0.6714184909
N 0.2499871688 0.6991107101 0.4624695822
H -2.377479015 1.1072044946 0.6770399528
H -2.8862259452 -0.2691202165 -0.4587049833
H 0.126817353 1.4909031544 1.0683588949
H -0.3763669664 -1.9832463981 -1.1662067435
H 3.2586421247 0.0064594832 0.3403070853
