15
0
C -1.6709842651 -0.4948687678 -0.1838783676
C -1.4105599664 0.7011884074 -1.0898884194
N 1.8132478584 0.4773602102 0.8640843143
C 0.9987179339 0.7755369016 1.6832974991
O 0.2616568238 1.1704541385 2.4989162578
C 2.15211486 -0.5987724362 -0.0213629151
H -2.6458151932 -0.9418457745 -0.3874239027
H -1.6568710813 -0.2060293093 0.8687561823
H -0.9208300079 -1.276726815 -0.3264504971
H -1.4325683905 0.4162590643 -2.1438065754
H -2.1627150116 1.4778615209 -0.9420908112
H -0.4363425564 1.1531664214 -0.8897835725
H 1.5412489369 -0.5536869893 -0.9246884692
H 2.0059579581 -1.5676374865 0.4583894215
H 3.1975551013 -0.505559086 -0.3097861448
