17
0
C -1.6860722053 -0.1181806932 0.5553304143
C -0.8801183956 0.7948609638 -0.3311527956
C -0.1342290823 1.9623324717 0.2668233487
C 0.6186231042 0.8013289679 -0.2751317775
C 1.2170176348 -1.8719793185 -0.8427755464
C 1.5424930979 -1.2688895701 0.2935344228
O 1.2751268051 0.002864824 0.6658623302
H -2.6704444299 0.309710301 0.7553963395
H -1.1868464605 -0.2752032904 1.5121607861
H -1.8262584002 -1.0951598145 0.0893849258
H -1.2975751928 0.9565364023 -1.3196148323
H -0.0911168205 2.901538864 -0.2679131215
H -0.1585983594 2.0498685528 1.3460693006
H 1.1750755814 0.9154716897 -1.2008867002
H 0.6572989542 -1.3858681788 -1.6294601743
H 1.5146013545 -2.8999263536 -0.9903604723
H 2.0932348146 -1.7763728179 1.0771675523
