14
0
C -1.6993057385 -0.9676052172 0.3223165081
C -0.2855141792 -1.0691387791 0.7946642161
C 0.7727336912 -1.2293838558 0.0112365411
C 1.3587225696 1.8590490682 -0.3605599131
O 2.3098973316 1.863559404 -1.0814509918
C -0.0162286575 2.0109918696 -0.876214957
N -1.0955459434 2.1466032343 -1.2403174486
H -2.150878739 -0.0246474119 0.640139277
H -2.3046902476 -1.7714247712 0.7489239862
H -1.7636048908 -1.0239516134 -0.7645596008
H -0.1333768417 -1.0130139682 1.870885351
H 1.7740263579 -1.3105138408 0.4176827923
H 0.6724703758 -1.3023665019 -1.0673397853
H 1.4202099114 1.7577933835 0.732689025
