10
0
N 1.9588286039 -0.127643433 0.0161297285
C 0.5914871439 -0.0391761696 0.0223261491
O 0.0933632275 -0.54895699 1.1594524163
N -0.1846200631 0.4069673442 -0.8791623375
C -2.9390483774 -0.2085183929 0.358905836
O -3.764909067 0.0821774189 -0.342608957
H 2.4009242513 -0.2829501853 0.9046645651
H 2.4565757736 0.4583035532 -0.6274994564
H 0.3200712243 0.7495375736 -1.686840508
H -0.871039717 -0.5050747191 1.082960564
