8
0
C -1.1513555516 -0.300393457 -0.2620736063
N -1.2214347976 0.9721021662 -0.1871373648
N 0.16243108 1.0406590997 -0.6205700901
N 1.0742018019 1.0282862789 0.5087008195
C 1.1157759646 -0.2447564153 0.4241465175
N 0.2105565359 -0.4481701582 -0.659607766
H -1.9024298217 -1.0695485148 -0.1478398014
H 1.7123507885 -0.9804919996 0.9448102916
