13
0
C -1.8262611001 0.1347967744 -0.1401092337
C -0.3647201195 0.0590938397 0.0902336534
C 0.7361717121 -0.2776476669 -0.8406648352
C 1.9760463291 -0.1609630279 0.0810392878
O 3.1142922228 -0.3589819843 -0.2756641006
N 1.5566229951 0.1983073481 1.3354765174
N 0.2127753747 0.293714945 1.2236041351
H -2.3613385477 0.407568888 0.7706570947
H -2.2099629796 -0.8255791667 -0.4914792316
H -2.0552121863 0.8759544036 -0.9091008807
H 0.6509866838 -1.2845140988 -1.2548074931
H 0.8103810998 0.4171445875 -1.6799996098
H -0.2870414843 0.5536031581 2.0634136964
