14
0
C 1.1887733112 0.7282774374 1.2322705804
C -0.0909826547 0.538892583 0.4464700539
C -0.912522795 -0.6097698965 -1.2461334758
C -0.7057891218 -0.8762336124 0.26615194
C -0.0126024699 0.6107087824 -1.0782018935
O 0.6202285647 1.2842702986 -1.8336822087
H 1.0223961623 0.5674099073 2.2989887643
H 1.9564236462 0.0264621101 0.8991848083
H 1.5780185297 1.7379225319 1.094672364
H -1.9338940692 -0.3171167519 -1.4982036752
H -0.573759665 -1.359616573 -1.9602627094
H 0.031642552 -1.6592887588 0.4462880937
H -1.599909097 -1.0926138442 0.8474856679
H -0.8603578934 1.2439917861 0.77946969
