14
0
C 2.204010333 0.4853874718 0.017654762
C 1.0291240738 -0.4294872201 0.2671575814
O -0.1598851988 0.3166513138 0.1186837588
C -1.3090460792 -0.4503526433 0.3257376203
C -2.7015531059 1.6632134904 -0.1228357855
C -2.5129784903 0.4160808749 0.1553500595
H 3.1403537753 -0.0661524851 0.1149236898
H 2.1524287354 0.9068014261 -0.9867618609
H 2.2080841205 1.3072466223 0.7342786843
H 1.0751835554 -0.8564934523 1.2794871646
H 1.0317326797 -1.2688774322 -0.4433030583
H -1.3151683003 -0.8862221862 1.3358008695
H -1.3594890776 -1.2856932254 -0.3883188609
H -3.517386021 -0.0138425546 0.2710453753
