16
0
C 2.913497452 -1.0958236733 0.3770767013
O 2.3513481669 0.0192985007 -0.2786766517
C 1.2278366468 0.5279166674 0.3511031384
C -2.2980218823 0.3063176076 0.0958407746
C -3.0059042072 0.4795221591 -1.2198222158
C -1.0403373131 -0.0325616853 0.2017979024
N 0.1114643499 -0.4127420352 0.2905405467
H 3.8072961769 -1.3738386757 -0.1784787903
H 2.2186965624 -1.9398626894 0.3961884029
H 3.1942754515 -0.8428042952 1.4076567895
H 1.4275031286 0.7210591877 1.4147155186
H 0.9829207853 1.4660604651 -0.1516194959
H -2.8456911621 0.4557893671 1.0193694271
H -3.8443163537 -0.2153508276 -1.3062849273
H -3.4045540729 1.4912932699 -1.321885968
H -2.330614729 0.2967926569 -2.0552741521
