14
0
O 1.9752356505 1.046310975 2.3015091714
C 1.1328572011 0.8595605745 1.4686733689
C 1.3541558642 0.0444987569 0.2089721843
C 0.3954274701 -1.1039886364 0.1571638479
C -0.8366275287 -1.1074114765 -0.3549449372
C -1.5049514138 0.0054148917 -1.0415527648
N -1.172727858 1.2223366173 -0.8959768106
H 2.3862483685 -0.3048842224 0.2045147978
H 1.1743192476 0.7218279418 -0.6302458332
H 0.7486811103 -2.0278478957 0.6056712114
H -1.3992013457 -2.0347749283 -0.3236665498
H 0.1152411449 1.2819585853 1.5663775659
H -2.3269674578 -0.2944714777 -1.7016951056
H -1.7472984534 1.8260702945 -1.4783321465
