11
0
C -1.0336498064 -1.2875233026 0.491689015
C -0.2295476054 1.4060655986 0.2070095533
C -0.2154068422 -0.0905081908 0.2560199259
C 0.9159468645 0.463390622 -0.0297071661
C 2.2764226794 0.3447501978 -0.3443097658
N 3.3940566681 0.2657881426 -0.6032773958
H -1.4842825251 -1.2403854566 1.4853241851
H -0.4418132369 -2.1978530197 0.4093121007
H -1.85264333 -1.3256609455 -0.2299927842
H -0.2654758417 1.9710973292 1.1369735162
H -0.685561024 1.9089790252 -0.6440941845
