11
0
C 1.2373398293 0.2350929638 1.0278151011
N 0.0436221754 0.6214758321 0.9163323542
C -0.3295086372 1.4034924193 -0.1840524563
O 0.1378128286 2.4763264637 -0.4431544641
C -1.8238887574 -1.9387973362 -0.0322918187
O -2.0300040857 -2.60796722 0.8455403475
H 1.0390668156 -0.731146239 -2.3051117208
H 1.5325267534 -0.3340981555 1.9069270053
H 2.0000993998 0.446253148 0.2735127326
H -1.1583056196 0.9524212296 -0.7542196388
H 0.4371772981 -1.0446791059 -1.9965754419
