11
0
O 2.5228767635 0.1105174154 0.0628706478
C 1.3563249415 0.3336016892 -0.0185269906
N 0.3809686357 -0.826183027 -0.3577480183
C -0.898929704 -0.3177140887 0.2193567224
C -0.8231475317 1.0735688446 -0.3489197469
O 0.6361719659 1.3718645908 0.0863314701
H 0.7524234342 -1.7106572147 -0.0233271382
H -1.7507198292 -0.8899780791 -0.144254076
H -0.7858914134 -0.4504485895 1.3100240574
H -1.4017533051 1.7863626925 0.2396214951
H 0.2768560427 -0.8138692333 -1.3785094229
