11
0
O 2.3348042363 -1.0009407455 0.0713236127
C 1.1532584515 -0.418022526 0.0288866501
O 0.2060464531 -1.3450676102 0.0785518039
C -1.079932007 -0.9532843197 0.0507572082
C -1.393739487 0.3500633733 -0.0267460691
C -0.3339845456 1.3026283551 -0.0806148624
C 1.002347351 0.9640373635 -0.0550425099
H -1.7591429398 -1.7911502367 0.097191796
H -2.435693944 0.6415017785 -0.0477415902
H -0.6230265635 2.3500072496 -0.1459906951
H 2.9589039953 -0.2612616818 0.0303416558
