14
0
C -1.6791435598 0.1424058792 -0.8784097214
C 0.121194467 0.2607342336 2.3594881805
O -1.022790342 -0.8436374489 -0.1094344947
C 0.3521537354 -0.8996042316 -0.3355634537
C 1.1031280683 0.3160165719 0.1693893907
N 2.0925357086 0.8008969162 -0.4123037489
O 0.5894246075 0.9288109057 1.3392043364
H -1.3463564695 1.1527507062 -0.6131786171
H -2.7422019746 0.0545228609 -0.6649320319
H -1.5086069319 -0.0184406492 -1.9490735972
H 0.2425339147 -0.8248318342 2.1323441738
H 0.60053903 -0.9887202468 -1.3983116428
H 0.7241335482 -1.7930787145 0.1698362078
H 2.4731851981 1.5998740513 0.0914600185
