14
0
O 1.5898950445 0.7384767464 0.211078544
C 1.1955066214 -0.4481374266 -0.4794061523
C -0.0209163648 -1.1291249891 0.1285085793
C -1.3528183314 -0.4371621254 -0.0145290043
C -1.6432085823 0.862946288 -0.0809716132
O -0.8277464361 1.9303231775 -0.0439004875
H 0.0959927702 1.6494203148 0.0958683109
H 2.0380169499 -1.1462457651 -0.5060267834
H 0.9881759949 -0.1334646794 -1.5032174062
H 0.191457566 -1.3397660371 1.186508022
H -0.0989193417 -2.1123537867 -0.3453310201
H -2.2153481032 -1.0920937934 -0.05146496
H 1.8372847592 0.5057047225 1.108869702
H -2.6790165465 1.1687603533 -0.1837057311
