10
0
O 2.1878176812 0.0913444687 -0.5974001697
C 1.2678775629 0.2933202257 0.3906416951
C -0.031340864 0.1499094775 0.2628741308
C -1.2323313628 -0.1873743319 -0.4699972947
N -1.25512477 0.291209448 0.9394337309
H 1.7252121994 0.5947476687 1.32357091
H 1.7295889544 -0.1488674568 -1.4065122963
H -1.6605914917 0.5082188413 -1.1830806687
H -1.4470291665 -1.2349659518 -0.659374145
H -1.4290677427 -0.4706383892 1.5862111076
