14
0
C 2.308859713 0.0493915471 0.1892632946
N 1.1230715387 -0.371708705 -0.5315772132
C -0.0521009299 -0.3724088838 0.1224248775
N -1.6955571334 1.6558075302 -1.0876921058
N -2.2117834503 0.6531174161 -0.6707069887
C -1.4952814087 -0.5150728532 -0.0640576533
C -0.76194926 -0.3621388153 1.2122081714
H 2.3988569272 -0.5402167739 1.1019654747
H 3.1890563454 -0.1371982253 -0.4245512141
H 2.2779020464 1.1099192692 0.4598232667
H 1.0567339827 -0.0665279415 -1.4879394608
H -3.2434589263 0.4987475915 -0.7061197288
H -1.9922183512 -1.4411206883 -0.3677098594
H -0.8588920936 -0.3070724677 2.2795291392
