14
0
C 1.8762398925 -0.1403176729 -0.9805970284
N 1.7168675997 -0.5599447119 0.3812283713
C 0.8772920343 -0.7178372896 1.2107212684
C -1.2559486593 1.4536982722 -0.01513957
O -1.4190179128 0.5579146312 -0.932786002
C -1.7080821824 -0.6987112194 -0.8306082098
O 0.1420902289 -0.9096791399 2.1017455369
H 1.6225550094 0.9155757338 -1.0855328663
H 2.913156279 -0.2844509548 -1.277407253
H 1.2331964708 -0.7261303907 -1.6388503828
H -1.0357167812 2.4424805225 -0.3780354857
H -1.4029323297 1.1881288099 1.023158466
H -1.8061630281 -1.2197762906 -1.7669345816
H -1.8864926211 -1.1285073 0.1459217371
