12
0
C 2.9216328612 1.1840541615 0.4058920371
C 1.758797853 0.8882209497 0.378339135
C 0.3966239522 0.5465154616 0.3120068654
C -0.6066546993 0.2791612278 1.1557816929
O -1.6003213255 0.0565673519 0.2418158699
C -0.6050066659 0.3247781933 -0.7964197201
H 3.952503224 1.446192041 0.4377677113
H -2.0987055048 -3.1129981868 -0.7867341827
H -2.115388969 -2.4516352309 -0.4420255829
H -0.7883034144 0.2086238912 2.2192735981
H -0.8924100254 1.1950651905 -1.3852997374
H -0.4606722862 -0.5549230507 -1.4229946867
