12
0
O -2.4704657303 0.788634635 -0.1527977583
C -1.5490567985 0.0664003177 0.0623576259
C -0.3235004493 0.0026284762 -0.8450383281
C 0.763279989 0.9298472508 -0.3900923023
N 1.8238381017 0.0980628196 -0.1183262992
C 1.4458400018 -1.1319526932 -0.3541541665
O 0.2368429011 -1.344192356 -0.7870596989
H -1.5011230674 -0.6020845566 0.9430058747
H -0.6114705363 0.2126600248 -1.876938832
H 0.1285132999 1.6489509158 2.1363026716
H -0.1661262814 1.3478283648 2.7536646614
H 2.0667855697 -2.011744199 -0.2187814483
