16
0
C 1.6185115944 0.210713371 0.6393123763
C 0.2638392625 -0.1030494049 0.042264927
C -0.2643049014 0.9667505967 -0.8482340972
C -1.4390639804 1.5696185742 -0.7500182583
C -0.6825120858 -0.9427522443 0.8431850445
C -0.0001343956 -1.5307891873 -0.3597968986
H 2.3544044179 0.4086524853 -0.1445452889
H 1.5668503219 1.0928319985 1.2814936574
H 1.9850499313 -0.625175503 1.2380978783
H 0.4130291753 1.2652231411 -1.6470445213
H -2.1459168841 1.3250593027 0.0348418233
H -1.735685258 2.3355499737 -1.4558813146
H -0.3554303263 -1.2661572826 1.8232322238
H -1.7441881629 -0.7486407534 0.7708838642
H -0.604475024 -1.7016715874 -1.2412721559
H 0.7896963152 -2.2549274804 -0.2017462599
