12
0
O -1.7579346038 -0.4518664846 0.8966933183
C -0.9962900365 -1.3108992256 0.5439532864
C -0.0244938324 1.0790219584 -1.2377617144
C 0.622474944 1.0884709863 0.133584179
N 1.2151530008 -0.1677659017 0.5135442197
C 0.5021859608 -1.2000017801 0.6429568242
O -0.3122966734 0.0964576073 -1.8582152108
H -1.3647488615 -2.2794802916 0.1535064931
H -0.227143818 2.0898541607 -1.6424439744
H 1.3990413489 1.8578155169 0.1187976976
H -0.1533925942 1.4222140582 0.8314026269
H 1.0156981653 -2.1403656042 0.8577252544
