10
0
N 2.3597671118 -0.1517382795 0.2108505644
C 1.1052857677 -0.0803419501 0.2112259861
C 0.1986617875 -1.2319322237 0.4726324037
C -1.0827112811 -0.6792506209 0.0230296905
C -0.934466976 0.82589148 -0.1251445854
O -1.7542780141 1.6669584738 -0.2731542491
O 0.4084566793 1.0967433576 -0.0563353233
H 2.7830671674 0.7419614363 -0.0426005588
H -1.1719157141 -1.1143773265 -0.9907798531
H -1.9766455282 -1.0055033469 0.553024925
