12
0
O 2.4438931033 -0.7097665324 -0.6411021938
C 1.4793578853 -0.1196716028 -1.036808472
C -1.2423592183 -0.5646337689 1.0538513253
C -0.8099838369 0.1926448333 -0.1703814322
O -1.5078251334 0.3276778464 -1.1420184014
C 0.6081740935 0.7534247776 -0.1591357736
H -0.5144968585 -1.3491689982 1.2765886987
H 1.1488931134 -0.1926080244 -2.0911146898
H -1.2587358915 0.1066483207 1.9159965233
H -2.2287396783 -0.9968592504 0.9030108145
H 0.5686123887 1.7486237306 -0.6085038172
H 1.0397680327 0.7996346686 0.8395294182
