13
0
C 2.0454425457 0.0853594655 -0.2673333499
O 1.1079515803 0.739412424 0.5665335773
C -0.1590275985 0.3527210023 0.3481932806
C -1.4411212576 0.7317058 1.0255787522
O -2.1334286938 -0.1486819528 0.0799600738
C -0.8828395917 -0.4114395249 -0.4670439587
O -0.7455644721 -1.1946343628 -1.5394662201
H 2.0197386336 -0.9968061769 -0.1045625127
H 3.0267670469 0.4732668274 -0.0038511711
H 1.8368793775 0.2907214476 -1.3219486499
H -1.337733314 -1.9481541143 -1.4522317982
H -1.7890560069 1.7564905342 0.8963929616
H -1.5820532493 0.3855246307 2.0494630149
