12
0
O 0.0127536865 -0.9680263974 0.3411629809
C 0.7434381554 -0.4694935853 -0.6966967642
C 2.004924508 -0.8168125179 -0.8810703996
C -1.1058133406 -0.2666943999 0.7491789099
C -1.1816806357 1.1863114682 0.7834934581
O -1.8692447712 0.4042241078 -0.2057987944
H 0.1981179375 0.1782565357 -1.3747395875
H 2.516908345 -1.4795812936 -0.195917388
H 2.5366341609 -0.4479099319 -1.7459631503
H -1.6575697741 -0.8783779796 1.4543873303
H -1.8206185299 1.6923405475 1.4999204166
H -0.3404117418 1.7613594464 0.4067099883
