15
0
C -1.5298900905 -0.7658165484 0.1595876866
N -0.4636432703 0.1984559079 0.3612698416
C -0.8497652124 1.523539047 -0.0869969428
C 0.7573897826 -0.2279224514 -0.224543844
C 1.8257922237 -0.4822587925 0.5192404125
O 3.0354562445 -0.8962057472 0.0735695002
H -1.7858671679 -0.9013242183 -0.9057706937
H -2.4287489075 -0.4338895615 0.683197734
H -1.2312633349 -1.7326545389 0.5644777681
H -1.7513250858 1.8418283526 0.4404518709
H -0.0530320736 2.2334660233 0.134547917
H -1.0572170158 1.5635771708 -1.1707025472
H 0.795502862 -0.3458947722 -1.3158503352
H 3.0127651197 -0.9804138804 -0.8834382435
H 1.8000369261 -0.3701349909 1.5961948757
