13
0
C -1.5470627557 -0.0560638324 -0.3826173228
C -0.320027918 -0.0954272381 0.4883292633
N 0.8515620075 -0.8611164376 -0.1240801368
C 1.6364973848 0.398840789 -0.0815858292
C 0.6093984496 1.1547619335 0.4709619532
O 0.3619232876 2.2929880746 0.8266530708
H -2.0753099325 -1.011686749 -0.4230555112
H -1.2902664174 0.2625288727 -1.396064702
H -2.2258260169 0.692707846 0.0275035699
H -0.5242251102 -0.4937784158 1.4839839323
H 1.1807051842 -1.6304008767 0.4568907501
H 0.6335761006 -1.2318972051 -1.0480638228
H 2.6506347362 0.4794372387 -0.4355902149
