16
0
C -1.0891701129 1.0670385896 -0.0080009373
C -0.5822314682 -0.0812890399 -0.867124714
C -0.7594011996 -1.4379367703 -0.1922083493
O -1.6368582053 -1.6731695473 0.5855867475
N 0.793343862 0.0775315238 -1.3086352852
C 1.8349698196 -0.0917912013 -0.4635433319
O 1.7250399547 -0.4683273633 0.6812617186
H -0.4799021874 1.1593112464 0.8904697424
H -2.1170458942 0.8737560782 0.2959523955
H -1.0530895336 2.0048253554 -0.5634335319
H 0.6056085676 -0.0067882113 2.9826588658
H -1.1872951082 -0.1523046684 -1.7787817581
H -0.0472436483 -2.218763898 -0.5243200741
H 0.2882652397 0.2736475243 3.5970470777
H 0.9789192168 0.446283738 -2.2238421171
H 2.8107646974 0.1341056439 -0.9265724486
