10
0
C -0.1192671814 -1.4750556379 0.205094017
C 0.9556682387 -0.7003394184 0.2535284851
C 2.2727131997 -1.2226668024 0.4644058191
N 3.3359590874 -1.6241949825 0.6327331063
C -1.5055695379 1.8415126861 -0.4218211479
N -2.0712626904 2.8178513272 -0.6935195161
H -2.5566983458 3.6561353863 -0.9285781482
H -0.0536656167 -2.5494252663 0.3238106513
H -1.0928506339 -1.0307118559 0.0437486729
H 0.8733234803 0.3732995638 0.1323580605
