14
0
C -2.1422031127 0.3297370886 0.4622507109
C -0.710194162 -0.1302832893 0.3420636544
C 2.155387698 -1.5503575869 -0.9605101637
O 1.6674469335 -0.421755488 -1.3399902724
C 1.3675550318 0.6638076615 -0.4054366979
O 0.0271021535 0.8813403523 -0.3378919813
H -2.7337861475 -0.4242264346 0.9833304504
H -2.2007480577 1.2647059835 1.0202863742
H -2.5764789391 0.4873427985 -0.5253399354
H -0.2617535185 -0.2953388201 1.3306724094
H 2.3215474738 -1.4788031777 0.1537563936
H -0.6506959952 -1.0693882198 -0.2188228691
H 1.8092147754 0.3676672016 0.5583423264
H 1.8359598667 1.5547869303 -0.8191593993
