12
0
C -0.090235892 1.4500491275 0.5234218294
C -0.9786234019 0.3258605278 0.9459757669
C -1.2279526572 -0.7893614329 0.2865799109
O -0.6875603989 -1.1162120722 -0.9620037634
C 0.6052439259 -1.1382133778 -1.0813309259
C 1.7884107807 -1.1839608059 -1.2479755349
H 0.8260160842 1.4647280592 1.1185266823
H 0.1955848814 1.3778012918 -0.5243252088
H -0.5969443668 2.4042137009 0.6786182943
H -1.4903156233 0.4188834932 1.8981205937
H -1.9172997113 -1.5528315833 0.6201352858
H 2.8399113794 -1.2286749282 -1.3935369303
