10
0
O -1.6516055778 -0.7466874531 0.9955912537
C -0.3414740161 0.9259979888 -0.1501101541
C -0.4756327687 -0.4041564625 0.5086734448
C 0.684802634 -1.1466775427 0.5316854339
C 1.509619243 -0.2524501562 -0.1160896549
O 1.0245988169 0.9335169805 -0.5343636107
H -1.5375020033 -1.6297438207 1.3759984326
H -0.5325089366 1.7603124704 0.5269484396
H -0.9674727469 1.0287366854 -1.0383294141
H 2.5619453554 -0.3570446899 -0.3630701708
