12
0
C -1.7763029244 -0.2775672026 -0.4684737813
C -0.497281782 -0.1009823796 -0.1507567513
C 0.0924975626 1.0913915837 0.5724838079
O 1.5021804603 0.8292690794 0.6856456037
C 1.7268021975 -0.367860772 0.1039983855
C 0.6477998656 -0.9696318317 -0.398226483
H -2.1067096953 -1.1687624604 -0.9863360121
H -0.31218147 1.2130965892 1.5790291038
H -2.5297280315 0.4602386828 -0.2212248716
H -0.0350166609 2.0246062919 0.0209521844
H 2.7577260936 -0.6926014832 0.1171431465
H 0.6261493846 -1.9243590974 -0.8979983325
