16
0
C -2.9307761609 -0.6270330084 0.4603782685
C -1.868488511 0.4196377108 0.3613315043
N -0.6782255372 -0.0732223717 0.5401899485
C 0.5424069843 0.7139943733 0.4721375476
C 1.3925148589 0.2887638639 -0.6901948699
C 2.8468984244 0.2543061749 -0.6016554823
O 2.0878948071 -0.9410576088 -0.5273865142
H -3.5004376209 -0.6316093391 -0.4720552384
H -3.6413296939 -0.3330636026 1.2364080616
H -2.5769318402 -1.6506983071 0.6679752968
H 0.2367421927 1.7546646013 0.368389095
H -0.5235180971 -1.0695161597 0.7136829693
H 1.1063382657 0.5948636973 1.4013037553
H 0.9329506732 0.410569294 -1.6689309261
H 3.4411955397 0.3703997555 -1.5026752753
H 3.3330987156 0.5549599265 0.3226168594
