11
0
C -1.7607521937 0.5141949875 0.1212371129
C -0.47334553 0.1044852678 0.0452719963
C 0.7638744692 0.7917419978 -0.168628603
N 1.7215835383 -0.1441032552 -0.1444930468
N 1.3276122196 -1.3566126224 0.0529300562
N -0.0035489692 -1.204323962 0.16893339
H -0.5550467962 -2.0262846313 0.326325185
H -2.0029386113 1.5589081758 0.0073662408
H -2.5621569478 -0.1887790262 0.2956214438
H 0.9766345281 1.83229488 -0.3279213998
H 2.7098172933 0.0057911884 -0.2644303756
