10
0
O 2.086068876 -1.1372008587 -0.394302761
C 0.9841926208 -0.9443905478 0.0185905557
C 0.3935261323 0.4568383086 0.0233368553
O -0.9896757786 0.4305584095 0.4368074873
C -1.9353483404 1.0666950956 -0.1782545153
O 0.2131604867 -1.915221823 0.5066376388
H 0.4754972269 0.8938188304 -0.9731778866
H 0.9469656931 1.0628725514 0.7406135019
H -1.4550125019 1.6080492979 -1.0361980024
H -0.635209415 -1.5550762638 0.7972421267
