10
0
O -0.9042874363 1.2199052787 -0.9283529798
C -1.2913681869 0.1332216316 -0.2919020554
N -0.5076891126 -0.6837380303 0.3405738253
C 0.8662409227 -0.6746564302 0.5397911948
C 1.6245636218 0.3747639029 0.0468422287
N 2.1876200709 1.2905452254 -0.3987100765
H -2.3514106666 -0.0695087735 -0.3168434245
H -0.9848023147 -1.4648990715 0.7636889429
H 0.0574553078 1.3709279846 -0.8649451755
H 1.2831547939 -1.5011017178 1.0837045199
