14
0
O -1.1444184508 -1.4905518497 1.9648219779
C -0.6463158874 -0.2615345283 -1.1199779335
C -1.0068717952 1.0103979466 -0.9152627953
N 0.2959672928 1.5478067233 -0.7887070692
C 0.8006772713 0.1641198824 -0.8966742741
C 1.3756262028 -0.3988070292 0.368416049
O 1.4583858892 0.2188970238 1.397707258
H -0.4381815296 -1.052071865 2.4450248689
H -1.1205434533 -1.1716003448 -1.4478470231
H -1.3470093692 -0.8936010282 1.2388110317
H -1.9328124656 1.5710414536 -0.9091889178
H 0.5241264809 2.0169319265 0.0804953032
H 1.484629238 0.0110670324 -1.7366867107
H 1.702815576 -1.4539063434 0.3062972354
