15
0
C 1.8146510103 -0.4492899604 0.1481868208
C 0.4109452717 -0.1177685044 0.6808435673
C -0.266183928 0.9130531066 -0.1946197864
O -0.9619122568 0.4500088455 -1.3619960987
C -1.7125315216 1.0605499778 -0.3092457273
C -0.2559487435 -1.4757199537 0.9091334926
O -0.8913779594 -1.9064580481 -0.1393917247
H 2.4397563203 0.4449413565 0.1412820721
H 1.7628999114 -0.8408582894 -0.8699881788
H 2.2951807855 -1.2015056267 0.7746179663
H 0.5274936763 0.3334630513 1.6705318116
H 0.3334911078 1.8008917508 -0.3917025933
H -2.1367627119 2.0249087098 -0.5661682532
H -2.3657200421 0.3896843753 0.2403734994
H -0.9259029202 -1.2528067908 -0.8771538677
