11
0
O 1.8810548336 -1.2162762778 -0.400410776
N 1.3243636714 -0.2127380468 0.4207267685
C -0.0063953439 0.0007334457 0.0638432488
C -1.0790356358 0.9119135425 0.594499186
O -1.9185985427 0.470680566 -0.5069459622
C -0.8421971144 -0.3237439567 -0.9158402952
H 2.5824333205 -0.7589359519 -0.8704165984
H -0.8770095149 1.9809096208 0.5225182774
H -1.5301108984 0.6589049187 1.5551440863
H 1.4017659018 -0.5586760073 1.3704537021
H -0.8769146774 -0.9212428532 -1.8127966372
