10
0
O 1.8144745127 -0.5221049938 0.3326575231
C 0.5716237077 -0.1089521661 0.1062976086
C 0.2591697749 1.2314940326 0.0330616774
N -0.9917656569 1.6097161258 -0.1927736676
N -1.9630216193 0.7412044108 -0.3540974285
C -1.7676224816 -0.6030413342 -0.3018245032
N -0.4444862994 -0.9544814977 -0.0621923337
H 1.8817823759 -1.4815825349 0.3576557142
H 1.0143416931 1.9952379512 0.15946202
H -0.2752410072 -1.9506069938 -0.0167726103
