14
0
C -1.6924540879 0.2991057579 0.460474845
C -0.4826238467 -0.4603781716 0.0234430423
C -0.3756778796 -1.7770622186 -0.2670614512
O 0.887122339 -2.1069497595 -0.6333467138
C 1.7125267229 -0.9973514769 -0.6065652828
C 0.855338257 -0.0129848388 -0.204526814
N 1.425436272 1.3254207028 -0.0705508532
H -2.561564711 -0.3569668807 0.5150710673
H -1.9422060176 1.1063106264 -0.2349273155
H -1.5630640032 0.7456369222 1.451285494
H -1.1080867126 -2.5705143073 -0.2529584035
H 2.4058454959 1.153530568 -0.3350080934
H 1.3968384523 1.6995703737 0.8769365227
H 1.0259677198 2.0156797024 -0.7049240438
