11
0
N 2.0491627128 -0.1597779051 0.3139812775
C 2.1470176592 -1.0113761996 -0.6126731344
O -1.2673867424 -0.5481693707 -0.8752217836
C -1.2070582397 0.2696043167 0.0027858289
C -2.4812484435 0.9136441034 0.5369273843
O -2.4571567182 1.7431267463 1.3997385338
H 2.9570099093 0.0469011111 0.726957034
H 3.0897729628 -1.4666332244 -0.9309542523
H -0.2556831878 0.5904139621 0.462065143
H 1.2437528633 -1.3204274077 -1.1383329766
H -3.4154847757 0.5528888679 0.0639509453
