13
0
C 1.8680487747 0.5876960223 0.0460446241
C 0.4792134363 0.0644575684 0.0112091934
C 0.0114250239 -1.1931318209 -0.0067233505
N -1.3794973162 -1.1280552896 -0.0349938818
C -1.8110825168 0.1785819699 -0.0366772025
O -2.9495581254 0.5988807863 -0.0587728719
N -0.6342144383 0.9002675102 -0.007225834
H 2.0423961776 1.1949923603 0.9376551449
H 2.0834266819 1.2062975132 -0.8286656398
H 2.5756689043 -0.2400849074 0.0573246513
H 0.5467183933 -2.1264643994 -0.0005330776
H -2.0196700947 -1.8982163528 -0.054521337
H -0.6295579007 1.9028550395 -0.0035104185
