19
0
C -1.8399869233 -0.2301690353 0.5482198403
C -1.5777093189 -0.376133168 -0.9161876277
C -0.6521748554 -1.1338904462 -1.5057977793
C 1.0790687825 2.1135451256 -0.3193103404
C 1.6389997427 2.2579639446 0.8700373359
C 1.006117422 -1.7405809448 0.2650013463
C 0.3500005807 -1.9916916303 -0.8638977446
H -2.9093272882 -0.1167332891 0.7347197971
H -1.4741888113 -1.0880367716 1.1136842218
H -1.3473671758 0.6630588957 0.9450238145
H -2.2305719836 0.1949049959 -1.5707096836
H -0.6443244347 -1.153853727 -2.5922782209
H 1.1177072871 1.1742770845 -0.8594735686
H 0.552600711 2.9302254552 -0.8006159777
H 2.1684292064 1.4424362498 1.3504299596
H 1.5967771309 3.1962530837 1.4114601399
H 0.8580626783 -0.8254711675 0.825643628
H 1.7365383062 -2.4412484439 0.6506473438
H 0.5885449437 -2.9065032112 -1.4014754843
