14
0
C 3.0708103925 -1.4854010852 -0.0358687136
C 2.0615970271 -0.950320215 0.3192712842
C 0.8125802676 -0.3298649329 0.7492846755
C 0.3278601334 0.8313983155 -0.0250397645
C -1.1202252896 1.0262492312 0.170753393
C -1.7281194372 0.3402497891 -1.078489185
H 3.9718322431 -1.9485552107 -0.3616069047
H 0.0546692865 -1.0920057368 0.9880344538
H 0.9860020521 0.2037443452 1.7067124167
H -1.3423936185 0.7840280078 -1.995529261
H -1.3884477943 2.0835889903 0.1384569843
H -1.5485466159 0.5619208967 1.072377613
H -1.5094501747 -0.7286590099 -1.0966237327
H -2.8103924723 0.4640306147 -1.0543792591
