14
0
O 1.3414103749 -1.4162704341 -2.0776099638
C 1.5912932159 -0.8744063838 -1.0004531186
C 0.9972986909 0.3028997885 -0.5197663083
C -0.4021351445 0.6659608169 -0.9429895
N -0.7457977997 0.4056657796 0.4921247246
C -1.7059167735 -0.2490121275 1.0029821493
C 0.6790364861 0.5577355848 0.9316575533
H 2.3590106112 -1.3171729854 -0.3251241261
H -0.6212434854 1.7102124107 -1.1871813665
H -0.9017360342 -0.0156497712 -1.6368311616
H -2.568058836 -0.4893107946 0.3932305165
H -1.6366859593 -0.586373791 2.0297890317
H 0.8268740203 1.5730434608 1.3164966719
H 0.9754206333 -0.1774445537 1.6858998976
