14
0
C -1.7692511815 -0.0658004521 0.2483170093
N -0.3579968796 -0.389832693 0.5418723954
C 0.090843516 -1.6742930597 -0.2484268126
C 1.1792223663 -1.1890995852 -0.8854528662
C 1.482848863 0.2218455244 -0.6133323016
C 0.5702504286 0.6789382893 0.2363669482
O 0.3210128093 1.85261511 0.8622403337
H -1.8476972326 0.1269265375 -0.819559687
H -2.0783846761 0.8100693937 0.8171441132
H -2.3695567158 -0.9362303569 0.4983770847
H -0.272412262 -0.6615312707 1.520249565
H 1.7826492748 -1.7950769051 -1.5476985414
H 2.3019809369 0.7980505632 -1.0215601625
H 0.9768537528 2.5005609045 0.5965049218
