13
0
C 0.4001001672 -1.1534460156 0.3479910572
C -0.2575735392 -2.0442435638 -0.3743199352
O -1.560292606 1.3975037673 -0.9686481669
C -0.9767341979 1.7840637977 0.0162884471
N 0.2066365938 1.2978328368 0.4581359107
C 0.8643365623 0.173022638 -0.1844312737
H 0.5751020955 1.6619010243 1.3182264058
H 0.6192775303 -1.357120732 1.3937703508
H -0.5055002602 -1.8515340198 -1.412522574
H -0.5830904487 -2.9881429472 0.0456440449
H -1.3599998849 2.6024604785 0.6523429657
H 1.941671205 0.2878616588 -0.0428905271
H 0.6574117829 0.2379170771 -1.2527847052
