14
0
C 2.3954422211 -0.3903578646 -0.3878693228
N 1.4434628829 0.2792734453 0.4747560133
C 0.2188116791 0.123090906 0.191367901
N -0.3155486617 -0.6195671852 -0.8584591635
N -1.6295414596 -0.4566745971 -0.727996546
C -2.0975960959 0.2712668171 0.2380364317
C -0.9172964712 0.7592478162 0.9947219902
H 2.2514241336 -0.1267106242 -1.4416495824
H 3.406723428 -0.1116509247 -0.0920954888
H 2.3030888957 -1.4801376904 -0.3175560618
H -0.8410751054 1.8487618926 1.0079426815
H -2.2101336528 -0.9249752068 -1.4104325085
H -3.1547243792 0.4259526465 0.3801321749
H -0.9134204147 0.4217065691 2.0338654812
