15
0
C -2.7163353726 -0.63151882 -0.3443620356
N -1.2676705245 -0.5951896097 -0.1919732772
C -0.7521137996 -0.5299145978 1.0327308974
N -0.2770935772 -0.5061569216 2.0849924403
C 1.8335957044 1.1500399438 -0.8525858868
O 0.7493537342 1.1726598853 -1.3807871192
C 2.4370716304 -0.0427444103 -0.1899877827
H -2.9460944872 -0.8493758593 -1.3858771163
H -3.1932143283 0.3110321052 -0.0615130983
H -3.1242459114 -1.4321799954 0.2711012307
H -0.7427610362 -0.0430931821 -0.8640363715
H 2.4430593151 2.0744346508 -0.8342847357
H 2.4332457469 0.1242609712 0.891305729
H 1.8703242509 -0.9463373185 -0.4069734958
H 3.4780076551 -0.1558918414 -0.4998873783
