17
0
C -1.7403888434 -0.3540892381 1.5297250042
C -1.2409983269 0.1475648433 0.2066274379
O -1.8078875723 0.9946352613 -0.4390817248
C 0.0465567879 -0.447107193 -0.3341436208
C 1.2476990267 0.5076476123 -0.4205887944
C 1.9300631257 -0.5085847631 0.5022477623
O 0.7385935752 -1.3114480041 0.5743270942
H -2.6955504168 0.1103981117 1.7627578629
H -1.832424478 -1.4418109099 1.5074816719
H -1.0070851085 -0.1285565326 2.3067698078
H -0.4472940772 1.3643249366 -3.4844061415
H -0.8012481351 1.3711687105 -2.826565053
H -0.1970042839 -0.9566275002 -1.2734060754
H 1.6792968449 0.6198477045 -1.4116260237
H 1.0723384401 1.4915911404 0.0101375389
H 2.2305798844 -0.1428509938 1.4870768768
H 2.7586895572 -1.0629651857 0.0550973768
