14
0
C 1.0620700806 -0.2833334034 -0.7402650106
C -0.2514319796 -0.9580115393 -0.2181513084
C -1.3735024374 -0.0457630859 -0.6417817523
C 0.1218562203 -0.4101437222 1.1837415522
N -0.2016730253 0.9967999663 1.0339582566
C 1.1235246962 0.4885110197 0.5683865151
C -1.22756813 1.0843513947 0.0363891261
H 1.006288101 0.2620478242 -1.6842959662
H 1.8842923276 -0.9985614194 -0.7673707404
H -0.3701282977 -2.0248835303 -0.3825502141
H -2.0569159179 -0.2294577452 -1.458590237
H 0.0703792562 -0.8904046761 2.1529679133
H 1.9893593774 0.9753404219 0.9951049315
H -1.7614122715 2.0178704948 -0.0696700657
