11
0
N -1.4648036754 0.6268715615 0.9898828104
C -1.1342257482 -0.2337205165 0.0184463523
O -1.8409728459 -0.5738923113 -0.9298096853
C 0.0784321002 -0.9906621216 -0.0983673402
C 1.1412073275 -0.2397979306 -0.8308306667
O 1.7074702263 0.2770365213 0.3830116071
H -0.8013174588 0.8689735788 1.701990781
H -2.3764113807 1.0492270912 0.9831671848
H 2.1573256741 -0.4483578573 0.8271148354
H 1.8487205849 -0.8576729684 -1.3844285051
H 0.8299731961 0.6128269529 -1.4374333737
