17
0
O 1.7104803982 -0.5201999521 1.2863583126
C 1.2905635732 -0.3625669036 -0.0613767732
C 0.0747028898 -1.2255118103 -0.3811235957
C -1.1685848641 -0.6926497786 0.3181829431
C -1.4158008592 0.7756253061 -0.0393789093
C -0.2992837202 1.7326246096 -0.1329135034
C 1.0178464628 1.1111697758 -0.3844264242
H 1.0712143922 -0.1057402929 1.8693723942
H 2.1455390057 -0.7063396177 -0.6481358857
H 0.2807173171 -2.2563823842 -0.0871735259
H -0.0833022607 -1.2239543109 -1.4658603075
H -1.0542257825 -0.7881800774 1.4035520244
H -2.0435811778 -1.2946001678 0.0634269018
H -1.7445902277 0.8620915821 -1.0971573375
H -2.2552823857 1.2114063786 0.5087136267
H 1.0578111471 1.2713464315 -1.4796129946
H 1.8266960916 1.7492282118 -0.0163099455
