19
0
C 2.2060295296 0.2639197325 -0.2261272725
C 0.89285676 -0.3311305476 0.2413416983
O 1.1371649086 -0.8470790949 1.5437777159
C -0.2414450285 0.7026785869 0.2699891921
C -0.5963670973 1.2050708599 -1.1580919546
C -1.6101363887 0.3256987509 0.6950302826
C -2.0149724331 -1.0608000899 0.39573352
H 2.1525860192 0.5792923688 -1.2686056557
H 2.9985040802 -0.4786270957 -0.1317049365
H 2.47259869 1.1255938783 0.3898980055
H 0.6255419007 -1.1533823365 -0.4362035709
H 0.3619600741 -1.3216016844 1.8474506751
H 0.097777721 1.5656789796 0.8510912973
H -0.6802036291 0.3687630705 -1.8545504691
H 0.1835174534 1.8800929165 -1.5062818505
H -1.5394630263 1.7553426864 -1.1654690451
H -1.4046212833 -1.6809073134 -0.2732460489
H -3.0703585454 -1.1245766644 0.1255470303
H -1.9839387052 -1.5074060035 1.4054393866
