10
0
O -1.642999664 -1.0029681988 0.2610801381
C -0.4707386494 -0.5439383162 -0.3306434955
C -0.3203836829 0.9554025581 -0.487407838
N 0.8112621657 1.3602833758 -0.0676583286
C 1.4212382221 0.1653995818 0.4421083224
N 0.7556532515 -0.9124644381 0.3642317343
H -1.5960754589 -0.8303797874 1.2048665217
H -1.0540185769 1.612902497 -0.9418345166
H 2.4109478167 0.2292600006 0.8787117498
H -0.4277974238 -0.9923902731 -1.3320432876
