9
0
O -2.6889365674 -0.1040239264 -0.5884395564
C -1.7586593959 0.2114679485 0.0868983438
C -0.3691823133 -0.4249499179 -0.1202365401
N 0.6245256636 0.3091805957 0.5993409339
C 1.8893304282 0.3043070268 -0.0394167711
N 1.9558334637 -0.6166717762 0.7626072503
O -0.1936054741 -1.4095023185 -0.768279602
H -1.8217415242 0.9691547121 0.8880796355
H 2.4102337194 0.8543226557 -0.8089666939
