14
0
C 1.4891308706 -0.4083577032 0.7702441615
C 0.2622997826 -0.7454936891 0.4371655575
C -0.6426585147 -1.3408058818 -0.5424368185
C -1.1551825255 -0.7857237961 0.7866288176
C 0.1453506601 2.1067024837 -0.899827369
O -0.9831497893 1.9365806217 -1.2657538601
H 2.325334007 -0.6095454928 0.1099609467
H 0.3810768784 2.5532803361 0.0834629284
H 1.7023454257 0.0651759805 1.7221157598
H -0.879509209 -0.7724886963 -1.4347999381
H -0.6266684257 -2.4166224584 -0.6724360188
H -1.4797508584 -1.4919332157 1.5417735571
H -1.7201304587 0.138794745 0.7478727236
H 1.012005157 1.8317157665 -1.5284914476
