16
0
C 3.1051230428 0.2028600906 0.6800668039
O 1.8181441965 0.7032538322 0.4347016823
C 0.8726429219 -0.3132616629 0.2238340015
C -0.4725455651 0.3346754882 -0.034818733
C -3.817702404 -0.2240557226 -1.1455476666
C -1.5540552708 -0.6758382864 -0.2398296471
N -2.6467229385 -0.4024352714 -0.6874043105
H 3.7659616833 1.0545305104 0.8357558686
H 3.4757444256 -0.385316594 -0.1697994797
H 3.1246157517 -0.4311085552 1.5763052242
H 0.8060959014 -0.9729291345 1.1005715603
H 1.1619225539 -0.9386616315 -0.6333566484
H -0.7501172522 0.9442234251 0.8316703217
H -4.6250223689 0.0119422017 -0.4650431588
H -0.405807994 1.013368343 -0.8916530303
H -3.9962526837 -0.3322070328 -2.2072127883
