12
0
C -1.9974399857 -0.4193948518 -0.01609097
C -0.6837049043 -0.2678954939 -0.0148836401
C 0.1510670534 0.9883365336 0.1131239529
C 1.5440790772 0.4285670354 0.0217682598
C 1.4480317976 -0.8822063991 -0.1208763772
O 0.1611203041 -1.3534714564 -0.146346142
H -0.0383821035 1.4964582351 1.0622159625
H -2.4465907706 -1.3973343776 -0.118341597
H -2.6410251679 0.4422889498 0.0861582922
H -0.073987781 1.6994613904 -0.685630355
H 2.4592630908 0.9960102619 0.0648102874
H 2.2068693901 -1.6427878273 -0.2231216734
