13
0
O 0.1233623141 1.4051657002 1.771709914
C 1.2093477035 1.1769797327 1.3125677929
C 0.8103774753 -1.2477954588 -0.6902753324
C -0.3937902346 -0.7345138836 -0.5314287481
C -1.4499199502 0.1936287853 -0.8724635941
N -1.4934266947 -0.7139810571 0.3035236771
H 1.5930808423 1.713092806 0.4264653752
H 1.206187496 -1.9630678451 0.019934557
H 1.4024687274 -0.99892325 -1.5603574304
H 1.8875373891 0.4290310466 1.7600098071
H -2.1727358293 -0.0350258769 -1.6464594362
H -1.2654924301 1.2485084965 -0.6919668109
H -1.3340768088 -0.2432931961 1.1897152288
