16
0
C -1.0310416725 1.9277325891 -1.3410389729
C 0.4970933715 -0.4007057122 1.6051612788
C -0.6582101514 -1.1358263941 0.9582563924
O -0.336410276 -2.5013873006 0.850659359
N 1.5321667555 0.0031818716 0.9983652192
C 1.7352073864 -0.2382743813 -0.3516015017
O 1.7190167117 -1.3316161026 -0.8646613555
H -1.0168653687 2.8542106628 -1.9123293964
H -2.0589147697 1.6789563235 -1.0807925696
H -0.6059778697 1.1258738969 -1.9442886883
H 0.4699371155 -0.2565282301 2.6856460838
H -1.5465236315 -1.0641447339 1.5859757561
H -0.8886909075 -0.6891390394 -0.0162601624
H 0.4113166198 -2.5626959066 0.2409994993
H -0.4466351124 2.0584365394 -0.4303717076
H 2.007816799 0.6662139173 -0.9165572341
