10
0
O 1.8696538133 -0.3587931473 0.2439390911
C 0.5393302454 -0.0452439911 0.0136359772
C -0.4768917745 -0.9882105884 0.4768944544
N -1.7188322495 -0.7415151385 0.4211409247
N -0.0984784364 2.1156094888 -1.1341781944
C 0.2075155274 1.1175367819 -0.52086134
H 2.2721453768 -0.6508466303 -0.5767822928
H -0.0479469169 -1.9147041383 0.8764586421
H -2.260315446 -1.5205624276 0.7823595819
H -0.2737551396 2.9557607909 -0.588650844
