12
0
O 0.6773404093 -1.7041229055 0.1592440498
C 1.2972671111 -0.5127496087 -0.152033566
C 0.7552779343 0.6722699783 0.0870877896
C -1.0098984644 1.9616060288 0.7235818288
N -0.5216786463 0.7999388264 0.6367879198
C -0.3916153281 -2.0914527999 -0.5693254527
O -0.8145536384 -1.5527507581 -1.5406283875
H 2.2867384353 -0.6283296155 -0.5743448604
H 1.3291815881 1.5650417005 -0.1604236368
H -2.001407144 2.087920439 1.1509699255
H -0.4832215664 2.8611807404 0.3837749855
H -0.7937386904 -3.0095020258 -0.1232645959
