16
0
C 1.6876330309 -1.0177718478 -0.4204327825
C 0.6331367198 -0.3573941538 0.3942217684
N 0.7751140479 0.8122012976 1.0328935694
C -0.4624614561 1.345514833 0.7054416481
O -1.2121911268 1.936776628 1.6981639472
C -0.8004709328 -0.0301752675 0.0646603325
C -1.2493933129 -0.1582304765 -1.3741646
H 1.8445953722 -0.501129138 -1.3774776136
H 1.4193928454 -2.051263664 -0.6410315842
H 2.6410828901 -1.0237509153 0.1119713183
H -1.3301525691 1.3361972133 2.4457822522
H 1.5573241104 1.2080777802 1.5353919559
H -1.4907393158 -0.5288043963 0.7496712093
H -0.5899698545 0.4026388542 -2.0373227087
H -2.2581897886 0.2363157827 -1.4967903531
H -1.2546586604 -1.2047245298 -1.6892843593
