10
0
N 2.849146421 -1.0909755994 0.2949184641
C 1.88669972 -0.4712445222 0.218148325
C 0.6756734534 0.3236947824 0.061076343
N -0.4212775147 -0.1795387102 0.7819823735
C -1.4131830129 -1.0020801039 0.0338386883
C -1.739155676 0.2120086582 0.2104820443
N 0.6211477913 1.4008187552 -0.5938412171
H -1.5230841207 -2.0313886735 -0.2500090753
H -2.3647212171 1.0827575719 0.2003724596
H 1.5228951557 1.6655188415 -0.9783134055
