18
0
C -1.6705555078 -0.3266296483 0.7839518253
C -1.3429099429 0.3748315089 -0.493000683
C -1.4896210231 1.6742995045 -0.7115255749
C 1.4042422876 1.4868732717 0.8118784978
O 1.4293054103 0.7426967902 1.7504883837
C 1.6359942751 -2.0088283537 -0.6463315837
H -2.0831214152 0.3613357582 1.5228720378
H -0.7749829677 -0.7856828904 1.2106418512
H -2.393799238 -1.1272548619 0.6108169178
H -0.948234872 -0.2474400365 -1.2933637288
H 0.7201478122 -2.5989025275 -0.6474548745
H -1.2321537971 2.1213538865 -1.6644416881
H -1.8863712633 2.3354832565 0.052569087
H 1.7179204079 1.1665169643 -0.1985032937
H 1.0704912167 2.5367349463 0.906721631
H 1.683133711 -1.4117908519 0.2640906581
H 1.645562074 -1.3569861304 -1.5197632515
H 2.4955388322 -2.6760565866 -0.6880122116
