17
0
C 1.1250313673 -0.0658657196 -0.942233027
N 0.0151790962 0.47347582 -0.1612731231
C 0.1199903751 0.4481266863 1.3069556873
C -0.9516065304 -0.3794099648 0.7061250154
C -0.5939247424 1.6476382873 -0.7751927602
C -0.6565538243 -1.8561166284 0.6432769459
H 0.751291125 -0.3794412932 -1.9185280187
H 1.896557662 0.694974827 -1.0802953085
H 1.557998893 -0.9248715031 -0.4396830996
H -0.1087427097 1.3933688429 1.795084831
H 1.0680944943 0.015392767 1.6416350408
H -0.9790508287 1.371418401 -1.7577931717
H 0.1411472007 2.4514231341 -0.8798229717
H -1.4253284265 1.9590120898 -0.1498345493
H -1.2167839473 -2.32653817 1.4541729576
H -1.0329158562 -2.2985005699 -0.2826082043
H 0.3964036523 -2.1668740061 0.772280756
