12
0
N -1.7394574497 1.1556183511 -0.6468249555
C -0.6288573695 0.6664707935 -0.2698757682
C 0.6311133528 1.4924334097 -0.1281651228
N 1.532773082 0.6761113742 0.2638447688
C 0.9731054527 -0.6895135567 0.4066048915
C -0.3269978721 -0.7414085485 0.094662204
H -1.658185509 2.1566777728 -0.8329307122
H -2.0976085158 -3.8206333433 0.1344712249
H 0.8141718786 2.5453532584 -0.3005132737
H 2.4913483693 0.9442302619 0.4479462004
H 1.6857907984 -1.432296054 0.7344832343
H -1.7571272177 -3.152125719 0.1296093085
