11
0
O 2.282941805 0.6894066053 -0.2679812894
C 1.1182115131 0.4128695774 -0.1024289745
C 0.5139952668 -0.978816631 -0.3582903798
N -0.8558561694 -0.846470079 0.0975177228
C -1.0891628736 0.4594214978 0.4091582393
C 0.0127316616 1.239151555 0.3594518176
H 1.0658176282 -1.7395514594 0.1953715551
H 0.5728850052 -1.2065253814 -1.4256383736
H -1.5889202567 -1.4276377023 -0.2645959312
H -2.0921268673 0.7592716708 0.6856925319
H 0.0810822871 2.2802723469 0.6274610817
