10
0
O -0.5744901175 -0.9667823966 0.1467618167
C -0.7420133511 0.2308172414 0.9513592599
C 0.3977444932 0.91279124 0.187886719
C 0.453916565 -0.394724711 -0.5609921831
N 1.1482256959 -0.8541957921 -1.4892225268
H 0.8748692973 -1.8053306488 -1.725660478
H -1.7367945554 0.6539738332 0.8147564673
H -0.5579382797 0.0183570277 2.0040414523
H 1.2936711714 1.1403566553 0.7611584205
H 0.121508081 1.7668465509 -0.4265979478
