13
0
O 2.5932042565 -1.362181499 -0.4052198659
C 1.4260211924 -0.8275529325 -0.8109749286
N 1.017390381 -0.0087719053 0.1400046381
C -0.1762492203 0.7797844321 0.0659775789
C -1.3400449892 0.4133167213 0.9389742965
C -1.3994113619 0.1898445583 -0.5434502209
H 2.8795280665 -1.9600029059 -1.0962612513
H 1.5878769848 0.1078313428 0.9730064668
H 0.0046540388 1.8357855126 -0.1007811082
H -1.223394068 -0.4600802362 1.5674665217
H -1.9220099617 1.215261377 1.3731028894
H -2.0216807909 0.839941382 -1.1429139412
H -1.3144815278 -0.8233348471 -0.9090610755
