11
0
O 0.7281414153 -1.3012668117 1.3001512171
C 0.2297754213 -0.2143514783 1.2135676172
C -0.1728076799 1.6816715359 -0.4240070577
O -1.3857504744 1.3214308656 0.1913245369
C -0.4314209861 0.2946233053 -0.0209107193
H 0.6412675551 -2.910488348 -0.824572319
H 0.2323049478 0.5043899554 2.0592602061
H 0.4885839226 2.3017282844 0.1755053528
H -0.2314275274 1.9295151991 -1.4792200776
H 0.6044763784 -3.2601951503 -1.4829028313
H -0.678530973 -0.4487253574 -0.772680925
