12
0
N -2.2744800951 -0.8133387867 0.2300040577
C -1.7794928123 -1.8811969653 0.7324088112
C -0.866194928 -0.7906610619 0.072886771
C -0.065686207 0.1332673871 0.9214278565
N 1.3453879005 0.1349400998 0.7835480507
C 0.8692093908 1.2004449952 0.2588915246
H -3.1363898534 -0.3081879183 0.0928233618
H 2.5356574252 1.6813218939 -2.8797539553
H -0.4735165141 -0.9805743503 -0.9232898152
H -0.467773044 0.3395565448 1.9104719638
H 2.1981084563 -0.3847878409 0.9241759248
H 2.169807281 1.7159830025 -2.2295005516
