12
0
N 2.3042554697 0.1095644246 -0.6001339935
C 1.0064683766 0.0472916441 -0.2037643829
O 0.8982056191 -0.4312187746 1.0476284351
N 0.0512485753 0.4160382519 -0.96304223
C -1.860971046 -0.869429349 -0.1659570219
C -1.2671233735 0.2610303392 -0.5577715442
H 2.4864323646 0.6542773227 -1.4225471439
H 3.0110077609 0.0766014389 0.1110026281
H -2.9122693974 -0.8734723502 0.0889456379
H -1.3386728736 -1.8201304203 -0.1602408293
H -1.8577155472 1.1726267389 -0.6212826958
H -0.0468809285 -0.504169266 1.2492191402
