19
0
C -1.9642696527 -0.8634519655 -0.7324129256
C -1.7663056337 0.617632193 -0.7159113597
C -2.0591347654 1.4192144298 0.297664799
C 1.0473041009 -0.960777073 1.4652450945
O 1.3265348673 -1.6046206725 0.229759191
C 2.1802396992 -0.5474223058 0.6439303891
C 2.1511430441 0.7047592224 -0.1802430808
H -2.5999143239 -1.1607817144 -1.5701800807
H -1.0062449521 -1.3764892583 -0.851547859
H -2.4281127952 -1.2139449126 0.1910701767
H -1.3391806984 1.0519289577 -1.6174758884
H -2.4910169868 1.0342076007 1.2163297251
H -1.8844287673 2.4871619055 0.2461958018
H 0.1503144974 -0.3465141006 1.4699787007
H 1.2086330576 -1.5703286247 2.3497286711
H 3.1676413857 -0.8896471282 0.9496296914
H 1.1221248996 0.9857592974 -0.408152201
H 2.6902607056 0.5599328177 -1.118433843
H 2.6252453179 1.5271783314 0.3596109978
