13
0
C 1.5385660951 -0.3608483001 0.502369413
C 0.4288186397 -0.8116030467 -0.4460363158
C -0.9122745581 -0.775208438 0.2150112579
N -1.8461459399 -0.0299002115 -0.1972043507
C -0.4108699764 2.8082949958 -0.8510162458
O -1.3539700325 3.4178003073 -0.814691198
H 2.514038726 -0.436501848 0.0208164405
H 1.3903956858 0.6783339596 0.8009584885
H 1.5645048629 -0.9727409493 1.4073472519
H 0.3928181532 -0.178090444 -1.3332300303
H -1.0256699484 -1.4276574614 1.092376366
H 0.6233387879 -1.8383912358 -0.7743230472
H -2.6778404953 -0.1306073281 0.3806489701
