12
0
O 1.845050994 0.5424095861 -0.2189323895
C 1.1333069992 0.1701512199 -1.1106826925
C 0.2902869528 -0.9214655026 2.028160495
O 1.0993007812 -1.2971259201 2.775628315
N -0.6242200556 -0.64461757 1.3014743807
C -0.3678595233 0.0992979172 -1.0218820959
C -0.9154842001 0.4090472908 0.3616229679
H 1.5655863249 -0.1405212976 -2.0835744782
H -0.6889712779 -0.8915232026 -1.3580957193
H -0.7659689721 0.809503225 -1.7563037327
H -0.5063024083 1.3557889503 0.7200238104
H -1.9991236149 0.5108323034 0.3059541393
