17
0
C -0.8763981605 1.9028010501 1.3585348807
C -0.2487069291 0.526963421 1.4318427701
C -0.770350623 -1.7105235514 -2.1609144709
C 0.1946102698 -1.6162781 -1.2612307099
C 0.9694791784 -0.3617573334 -0.9644708085
C 0.7780384121 0.0767077071 0.4373855895
C 1.2301834947 0.3369993569 1.6156506778
H -1.7843529994 1.8917579471 0.7494103749
H -1.1533240473 2.2651875503 2.3521841162
H -0.1817168382 2.6228191268 0.9195350905
H -0.9147371096 -0.2304812398 1.8520696014
H -1.2964370944 -2.6421876926 -2.3289917831
H -1.0699912868 -0.8589213368 -2.7630211408
H 0.46365089 -2.4875492858 -0.6693824591
H 0.6411555272 0.435550763 -1.6374262081
H 2.03506682 -0.5287915305 -1.146502007
H 2.058339496 0.404567148 2.3000034861
