14
0
C 2.7827761899 0.0051263916 0.2583174383
N 1.3653275816 -0.4559014821 0.2832639667
C 0.4731050275 0.5020936916 -0.3825719088
C -0.7737287403 0.1582511097 -0.6128085231
C -3.0509399038 -0.0856670881 -0.0341800305
N -1.886191375 -0.2024948646 -0.8913798441
N 1.005809133 -1.4891355785 0.7827542954
H 3.3613245128 -0.7504568482 0.7797357484
H 2.8593401494 0.9704157254 0.7611431292
H 3.1129638751 0.1068832236 -0.7762452664
H 0.8647162322 1.4638968199 -0.6767773814
H -3.3974952358 -1.0919363753 0.1985210473
H -2.8385176117 0.4508531264 0.8926160854
H -3.8394648349 0.4233281486 -0.5872147564
