11
0
C -1.0991262771 -0.7256492688 0.7283997521
C 0.0028681028 0.0058144912 0.0598959605
N -0.1773570655 1.2668058031 -0.6551741747
O 1.3252557618 -0.0028521372 0.6235685218
C 1.1661999261 -0.2320384371 -0.7560082826
O 1.0354177974 0.9938653769 -1.4253942612
H -1.426430731 -0.1844961085 1.618732957
H -0.7544049357 -1.7119059357 1.0343950544
H -1.9452814621 -0.8300367371 0.0507037271
H 0.0453792536 2.0611623923 -0.0547366984
H 1.6817776301 -1.0515034392 -1.235350556
