10
0
N -1.3855054593 -0.3324995604 -0.0848413612
C 0.0554401559 -0.0923704201 -0.1007941735
C 0.826805666 1.0431221543 -0.0897903293
N 2.0908408333 0.5914177451 -0.1162263331
N 2.0617410033 -0.7316146151 -0.1412642535
N 0.8185262648 -1.1774472893 -0.1323815778
H -1.863892169 0.0509440357 -0.8988438088
H -1.8400554655 0.0171436538 0.7575789167
H 0.5791480054 2.0925817451 -0.0657612377
H -1.4705448348 -1.353320449 -0.1045008416
