17
0
C -1.8111819388 0.06725881 -0.0400446942
C -0.9880392831 0.8885738883 -0.9967579171
C -0.3762362998 -0.2613982772 -0.2719238356
C 0.2830563941 -1.4756831873 -0.9099233211
C 1.5966679325 -1.1207231643 -0.2432893533
C 1.4520741996 1.0882299984 1.16161553
C 0.8280176954 -0.200418043 0.6715277289
H -2.5584336617 -0.5999261141 -0.4515144178
H -2.0830013679 0.5169180729 0.907365923
H -1.1783489703 0.7776305711 -2.0571550733
H -0.7131635636 1.8915020252 -0.693420565
H -0.0663037053 -2.4285076505 -0.4907694759
H 0.3183994887 -1.5936862605 -1.9953076766
H 1.7112455965 1.7346365742 0.3218403326
H 0.770396249 1.637910987 1.814457937
H 2.367096102 0.8764420012 1.7163349082
H 0.6209281326 -0.8695372312 1.5267109705
