12
0
O 0.8515869473 0.894061005 -1.0799890643
C 1.6286351865 0.2087372012 -0.0506239628
C 0.4230234089 -0.3200901732 -0.6130894568
C -0.5450286991 -1.1477242643 -0.7878911398
C -1.5041222775 -2.0100766907 -0.9634147965
O -0.2732800513 2.5624344372 1.0340181367
H -0.0628070005 2.2847363865 0.1348585024
H 1.5956098841 0.6921172504 0.9202864084
H 2.5878236229 -0.1619869596 -0.3952957943
H -1.4190737047 -2.801544745 -1.7007711717
H -2.4192856536 -1.9670227387 -0.3822484765
H -1.1628146631 2.2435132913 1.1912628152
