15
0
C -1.0935710066 -0.7257853789 -1.1562497237
C -0.4153025636 -0.3049455746 0.1195412679
C -1.2448110976 0.3892597723 1.1658176404
C 0.8558824824 -0.53122533 0.3102584025
C 2.099358085 -0.7513773455 0.4945674034
C 3.3327579679 -1.0070507886 0.6916447156
O 4.4601471413 -1.2311600157 0.866691216
H -1.5349735762 0.143733812 -1.6513507329
H -0.3999811802 -1.2008379917 -1.8481352513
H -1.9023481101 -1.4292344028 -0.9403987917
H 0.2324571299 2.2012812468 -1.0809324494
H -2.0736472793 -0.2520622325 1.4778428051
H -0.6577064553 0.6472305362 2.0457096306
H -1.6743692104 1.3078627571 0.7560370043
H -0.0666573274 2.8154369357 -1.3808881368
