15
0
C -1.2601357728 0.6067469731 -0.3484682739
O -2.0315122655 -0.1767691997 0.5660698192
C -0.9902440841 -1.1579531355 0.7081011546
C -0.1265981788 -0.4430633605 -0.3257227368
O 0.0271938137 -1.1861602072 -1.4969651515
O 1.0863569519 -0.0294392281 0.2118724522
C 1.8357532376 0.8227161183 -0.6217247057
H -1.7710743984 0.7394601502 -1.3070300595
H 0.0473031463 -0.5982685336 -2.2548546597
H -0.9858564453 1.5784654605 0.0723816168
H -0.5617365113 -1.1631546795 1.7119464553
H -1.3175150326 -2.1559630734 0.4135174838
H 2.215945535 0.2955511692 -1.5021658617
H 1.246311013 1.6906573918 -0.9461167352
H 2.6812849916 1.1784111543 -0.0365467981
