11
0
O -0.6679666678 2.4185439425 -0.2845103735
C -0.6294853222 1.2552583868 -0.1700812361
C -1.8673908486 0.2292080387 -0.3360881772
C -1.0894667458 -0.9604615588 -0.0688379309
C 0.1097317512 -1.0232887624 0.1890683032
C 0.6925353614 0.3422045318 0.1905725528
O 1.7639601454 0.7956593304 0.3753691739
H -2.6393146994 0.4711894825 0.3951369096
H -2.2828619307 0.3183534545 -1.3402986826
H 3.224205652 -1.5194046241 0.548284124
H 3.5639073044 -2.1830672218 0.5458703367
