9
0
O -1.2827238969 1.063684658 -0.3591997871
C -0.591462043 -0.1408099962 -0.3195716314
C 0.8683184345 0.0379819331 -0.3064502519
C 2.050044276 0.21332893 -0.308851706
C -1.3351751334 -1.5746094975 1.7180500245
N -0.9873822777 -0.9360720972 0.8079144947
H -0.9428146471 1.6428548203 0.3292783195
H -0.8854023769 -0.6881162137 -1.2168403647
H 3.1045486648 0.3639644631 -0.3088550977
