13
0
C -2.6365759209 -0.0153534071 0.2875034596
C -1.4600418239 0.3792625271 -0.2123573819
C -0.2685443842 -0.3225502349 0.2051757968
C 0.8658235049 -0.0858956697 -0.6265716585
C 2.0722604238 0.2752518862 0.2377491024
N 2.0468515449 -0.9594220901 -0.4620477431
H -1.4396196834 1.1633236549 -0.9748140364
H -3.5803809468 0.3924132472 -0.0597508108
H -2.6607064026 -0.7903241271 1.0448376408
H 0.8214843943 0.4002316399 -1.6008708473
H 1.9296874012 0.2866975401 1.3112885232
H 2.70765424 1.0498704315 -0.1743198737
H 1.7754236528 -1.701946398 0.1761958289
