19
0
C 2.1535001708 -1.5075944239 -1.0634375399
O 1.7071298763 0.7037190268 1.8879539159
C 0.6778615957 1.2745163328 1.653873455
C 0.1147735249 1.5218102378 0.2818422698
C -1.3455987604 1.0656008725 0.1678888307
C -1.4925502044 -0.4240456654 0.2481726848
C -2.047554064 -1.1786264862 -0.6865072256
H 2.2915170371 -1.0253707408 -0.0962491185
H 2.535594509 -0.8591210641 -1.8515853838
H 2.6940208577 -2.4529455913 -1.0823377017
H 0.0586611557 1.6710870389 2.4897836768
H 0.1644073678 2.6039596095 0.1141893345
H 0.748046594 1.031351436 -0.4581427326
H -1.7660644066 1.4284768964 -0.7719277408
H -1.9263104807 1.5335486596 0.9717819604
H -1.0967835135 -0.9002304266 1.1434616358
H -2.1232710329 -2.2533509473 -0.5754849449
H -2.4479607513 -0.7485071366 -1.5989664189
H 1.0921165249 -1.6921646281 -1.228257957
