13
0
O -1.2388251128 0.0655995222 0.9155217924
C -1.6094258041 -0.7345180101 -0.2074870184
C -1.6101150494 0.7187853784 -0.2977856385
N 1.5814790603 -0.10288084 -0.7747684152
C 2.1219827313 0.0161512451 0.3635351967
O 1.4355606153 0.132455164 1.4877632383
H 0.4700782519 0.1073902718 1.2862997763
H -2.5453145537 -1.2682000809 -0.0825747669
H -0.7857445653 -1.2718347702 -0.6648125618
H -2.545997468 1.2639747674 -0.241012427
H -0.78827772 1.1979340565 -0.8190388674
H 2.2867599593 -0.179097415 -1.4977790096
H 3.1973816551 0.0375077107 0.5545327013
