17
0
C -2.0266957992 -0.953794138 0.177313926
C -1.0248327043 -0.8998104827 -0.6905176527
O -0.3702197731 1.9246092325 0.5028304237
C 0.7473899056 1.6500030514 -0.3112786685
C 1.2907043514 0.2376335131 -0.2088183476
C 0.9907145358 -0.6294499351 0.9735442367
C 0.4227197374 -0.9868671967 -0.3684390371
H -1.099332339 1.3671420284 0.2166568508
H -1.8503770953 -1.0680854937 1.2413879968
H -3.0576694965 -0.8964860133 -0.1502779999
H -1.2583842574 -0.8053966259 -1.7495299403
H 0.5261600781 1.8765142998 -1.3633574179
H 1.5254988298 2.3463671213 0.0084875231
H 2.2842778425 0.1492203283 -0.6363987785
H 0.3157689853 -0.2121945316 1.7095964895
H 1.7759754706 -1.2528798295 1.3794444542
H 0.9124917282 -1.8081683283 -0.8830070585
