15
0
C -2.2668074605 -0.1047682511 0.0294492449
C -1.0222870266 0.7238987379 0.236133728
O -0.139172319 0.2656212822 1.2806415621
C 0.9273952013 0.4806374999 0.3431103567
C 1.6916095469 -0.8076910785 -0.0035518567
C 0.041288966 0.8518936446 -0.7959473228
O 2.6936413119 -0.5451697212 -0.9439734995
H -2.0027615931 -1.1347736786 -0.209309903
H -2.8695181027 -0.1026333259 0.9378005319
H -2.8518752719 0.3095865305 -0.7915738771
H -1.289136189 1.7860168285 0.4160948601
H 1.6414657491 1.252542554 0.6499485271
H 2.1666763536 -1.1794748147 0.9048158482
H 0.9834914063 -1.5728132479 -0.3452974286
H 2.2766964276 -0.1579069598 -1.7197727714
