14
0
C 2.0370100688 -0.3994259279 0.114073857
C 0.6554492506 0.0810813131 -0.2632994641
O -0.2425293021 -1.0158292938 -0.4057837231
C -1.5394550313 -0.4571816891 -0.3811978626
C -1.378725558 0.7796420283 0.5072240702
C 0.0334321958 1.2071055156 0.4287843347
H 2.4020001054 -1.119812324 -0.6173197982
H 2.7217197921 0.4451852392 0.1668940944
H 2.0025181151 -0.8864603579 1.0888645299
H 0.7127616384 0.6447814339 -1.2387964553
H -1.8537362642 -0.1661675308 -1.3938562792
H -2.2363025998 -1.2031636722 -0.0001563396
H -2.1218811643 1.5695202543 0.4061458856
H -1.3886402463 0.4831590109 1.5743501502
