14
0
C -1.793546914 -0.6256561674 -0.000203335
C -0.652649527 0.3164004239 -0.3427170092
O -0.1470235274 0.9239352011 0.8443001373
C 1.2579235735 0.7639266044 0.9349021203
C 1.6230433649 -0.1033421261 -0.2300411022
C 0.5466418095 -0.3499545754 -0.9543575914
H -2.5855270721 -0.0836078404 0.5177877635
H -1.440012993 -1.4292906824 0.647965729
H -2.2141320626 -1.0642046714 -0.9079626003
H -1.0304014241 1.1066980988 -1.0085474903
H 1.7544026238 1.7425224468 0.8886707178
H 2.6291330299 -0.4490338331 -0.4251248534
H 1.5151823988 0.3079787174 1.8981068941
H 0.4981277198 -0.9361995963 -1.8622143802
