14
0
O 0.51216569 0.7980599538 1.134691378
C 0.9236027728 0.1410024582 0.0227959161
C 1.9438017576 -0.8219143004 -0.3266805191
N 0.5239724627 -1.2614263546 -0.2671397076
C -0.9244979316 0.6457371108 1.1149826515
C -1.3496102067 0.3798247814 -0.3514048375
C -0.0677380682 -0.1030982219 -0.996743155
H 2.4381898705 -0.7470669941 -1.2951150478
H 2.5441142158 -1.2501698929 0.4681880535
H -1.353957043 1.5525465779 1.5373109185
H -1.1807613291 -0.2066983927 1.7453320231
H -1.6778937136 1.2948644182 -0.8476682084
H -2.1591219014 -0.3484627856 -0.4007104123
H 0.1052954243 0.0134896416 -2.0642090531
