19
0
C 2.5643759542 0.6564453499 0.3483913349
C 1.4603880399 -0.1782217417 -0.2572225792
O 0.3288866333 -0.0993541781 0.5796053425
C -0.785718859 -0.8550206544 0.1212856281
C -1.6989714069 -1.0896654629 1.339541086
C -1.7019652668 -0.2786447457 -0.8783683307
C -1.4876461555 1.1399644462 -1.1683528388
H 2.8089135137 0.2964604258 1.3484977084
H 2.2551464031 1.6997630821 0.4270622503
H 3.4635744861 0.6077646278 -0.2680773069
H 1.7769688632 -1.2267844354 -0.3548201421
H 1.2240902665 0.1810884765 -1.2689340637
H -0.4356511418 -1.8344020393 -0.2356303524
H -2.1458007321 -0.150937542 1.6721473125
H -1.0791686346 -1.4741935231 2.1485178606
H -2.4904737633 -1.7975654623 1.107024913
H -0.8871639936 1.0488957131 -2.0932796659
H -2.396692017 1.6527964274 -1.483188643
H -0.8985041896 1.725201236 -0.4538415134
