15
0
C -1.7550752262 -0.0238178297 0.490688761
N -0.3455045181 0.0771560882 0.1671029551
C 0.3534562826 -1.1366544667 -0.357155983
C 0.7658559347 -0.2828665151 -1.5313399602
O 1.8735645559 0.8954002066 1.8872216583
C 0.0489550767 0.7278041469 -1.0367538629
H -1.8773857545 -0.6330743763 1.3869724404
H -2.1472939583 0.971764529 0.7028635084
H -2.3450097735 -0.4665898879 -0.3238679203
H -0.3425138395 -1.9460389143 -0.5875063748
H 1.139878448 -1.4933334483 0.3106973675
H 1.4474810056 -0.4136415111 -2.3555884743
H 1.0325217359 0.6955965535 1.4427916679
H 2.4677061721 1.1440020526 1.1781930578
H -0.1875161412 1.7483773726 -1.3114368408
