11
0
O 0.5751260493 -0.5659921239 -1.9416214438
C -0.623715793 -0.5063259333 1.2894798437
N -0.2024209016 0.7869676673 1.2060636797
C 0.4757978561 0.975009321 -0.0617306948
C 0.2399147553 -0.3535102072 -0.8000992753
C -0.442317248 -1.2149016832 0.1538533593
H -1.074012865 -0.8521638687 2.2112907242
H 0.0715747373 1.2922610127 2.0281065124
H 0.0642457083 1.8064200171 -0.6354293701
H 1.5500952235 1.1303843867 0.0655586106
H -0.7546855223 -2.2286285884 -0.033773946
