19
0
C -2.098367262 -0.050277989 0.3377536664
C -1.3706169513 -0.7186806684 -0.8003663142
C -0.2202403558 -0.0729201754 -1.5206876236
C 0.4402394197 1.0863503425 -0.7998107256
C 0.8333742018 0.6764951529 0.5741886564
C 0.8040803828 -0.8089476749 0.5421922544
C 0.0127730692 -1.2896222358 -0.6584370556
H -2.8563584944 0.6407700974 -0.0373191099
H -2.598644359 -0.7894938847 0.966917767
H -1.4376679658 0.5295247892 0.9922321648
H -2.0179627204 -1.3019641708 -1.4460096917
H -0.1814706272 -0.1292280261 -2.6009656316
H 1.4217938648 1.3336026969 -1.2411036918
H -0.1050843514 2.0334754145 -0.8085423425
H 3.7805751653 1.920879124 2.045343335
H 3.0696649227 1.7592809267 1.8752817178
H 0.5300742473 -1.2416322655 1.5075334776
H 1.8795498748 -1.0376160068 0.4348139877
H 0.225260939 -2.2584214467 -1.0918778404
