12
0
O 1.8699249993 -0.9910016234 0.2175436023
C 1.3823579339 -1.5061720166 -0.7385146248
C 0.0981602834 1.5971867263 -0.0952126054
C -1.026988609 1.5081382003 0.8682380467
N -0.60518143 0.4636782623 -0.0468464945
C -0.8009286483 -0.7797516639 -0.2703820174
O 0.0702343365 -1.4956048398 -1.0616180171
H 1.9230101814 -2.0726078172 -1.5065234789
H 1.1630604657 1.6229086316 0.0871515671
H -1.9664821065 2.0020917268 0.6361594268
H -0.8846395957 1.2435018549 1.9176049885
H -1.7083628108 -1.2838964414 0.0156106068
