14
0
C -1.8691635691 -0.747787083 -1.3794578984
C -1.263832963 -0.1918109364 -0.1279702212
C 0.0271126945 0.0330015195 0.0387173396
C 0.9392273245 0.5690784621 1.1108480088
C 2.0315518407 0.3121786287 0.0636846653
O 1.0468777425 -0.1893380921 -0.8674929988
H -1.1042667286 -0.9444947061 -2.1305093538
H -2.3984651636 -1.684004973 -1.1833637578
H -1.9127507963 0.0516801349 0.7057731321
H -2.5949219036 -0.0528506504 -1.810357692
H 1.000413198 -0.0361369748 2.0137275758
H 0.7787306254 1.612435206 1.3772412218
H 2.5309373008 1.1970108625 -0.3335121965
H 2.765896398 -0.455477398 0.3111441749
