11
0
N 2.5689385999 -0.2210111967 0.6002471336
C 1.6560329616 -0.7586547232 0.1439978845
O 0.6597569813 -1.3555893219 -0.3919427954
C -0.6593560169 -0.7870087867 -0.1160016777
C -0.7150344456 0.7160115856 -0.3015093396
O -0.2379327623 1.4401352944 0.8028666107
H 0.7221801797 1.3926799309 0.8350175412
H -0.2009812989 0.991060438 -1.2312515444
H -0.9331824308 -1.0591736314 0.9045785651
H -1.3035926215 -1.3001342366 -0.8267963924
H -1.7670701465 0.9858806475 -0.4194159857
