18
0
C 3.2137749037 1.0245875717 -0.8992383139
O 1.7913093013 1.1261760975 -0.7700339808
C 1.160155571 0.0643825187 -0.3792998134
C -0.8764089583 -1.3806173894 1.171058418
N -1.1495822552 -0.7220831075 -0.0887174326
C -2.5447199466 -0.363746839 -0.2068106147
C -0.2942374196 0.42318127 -0.3012963636
H 3.4719716232 1.2727885017 -1.927985824
H 3.5194593259 0.0096659015 -0.6500876955
H 3.6637002988 1.748794397 -0.2211336732
H 0.1761228819 -1.6578899877 1.2174165219
H -1.47947901 -2.2867424197 1.2490536709
H -1.1075145853 -0.7362265293 2.0396561589
H -2.866238066 0.365047301 0.5597479965
H -3.164156448 -1.2562864091 -0.1033929916
H -2.7386885501 0.0710312006 -1.1895538786
H -0.3911420148 1.1801694962 0.5092919626
H -0.5915526518 0.9302444257 -1.2270441468
