15
0
C -1.6583220695 -0.81262655 -0.1972484258
C -0.5236213619 0.1039295786 -0.5778173359
N -0.1578477249 1.1579907302 0.5015032456
C 1.3299354928 0.7920819207 0.3712972372
C 0.8953801807 -0.3636156136 -0.4739962556
N 1.3818767303 -1.5650500896 -0.5494475753
O 2.5540216289 -1.7184737291 -0.0945892002
H -2.6176597625 -0.2903111306 -0.1538417063
H -1.4562469914 -1.3106032342 0.7531034913
H -1.7278396305 -1.5938791979 -0.9543561549
H -0.7806455724 0.682345598 -1.4762838654
H -0.4126228386 2.1213514544 0.3003288481
H 1.7925009359 0.5468566355 1.3297894104
H 1.8577359705 1.6308912546 -0.0927704889
H -0.5325959874 0.895589373 1.4082397759
