16
0
C -2.0288657514 -0.386207297 -0.1762194736
C -0.4986723798 -0.4045050827 -0.4100489645
C 0.2835397129 0.8868402267 -0.459895386
C 1.7371489035 0.6813519901 -0.0829925361
O 2.334846932 -0.1474180059 -1.0661023871
C -1.081145985 -0.8425934579 0.8478157518
N -0.8301652065 -1.238385037 2.0110628223
H -2.5084533371 0.5777445996 -0.0405227708
H -1.6930524608 -1.353461357 2.5426029566
H -2.625808042 -1.119520288 -0.7056934606
H -0.1430851316 -1.1804560491 -1.0801072272
H 0.2284113319 1.320399625 -1.4626488269
H -0.1558343012 1.6100228705 0.2339600245
H 1.789760597 0.2140262847 0.9076409795
H 2.2479416011 1.6514086056 -0.0353876423
H 3.1854015168 -0.4473396274 -0.7447668594
