16
0
C 1.1789258768 1.1796212769 0.1091558174
C 0.2290905393 -0.0284224642 -0.00800211
C -0.8320395606 -0.4182652249 1.0237947691
C -1.8958271624 -0.2926714997 -0.092254773
C -0.7654801137 -0.2596594486 -1.1480009616
C 1.6630964576 -0.2084485276 0.0239451541
N 2.5987942576 -1.0428947483 -0.0065018382
H 1.2871933741 1.8213174691 -0.7597134022
H 3.5009985523 -0.5710449709 0.0557683327
H 1.2294144827 1.6901655116 1.0657506469
H -0.9349583867 0.2409163449 1.886174932
H -0.7023531196 -1.4436450886 1.3721009902
H -2.618843958 -1.1029155841 -0.1747529105
H -2.4350342749 0.6531624644 -0.0405998123
H -0.6117398671 -1.2245040562 -1.632865816
H -0.8195450974 0.5181295462 -1.9100510186
