15
0
O 2.5381143377 -1.1863527313 -0.6823135334
C 2.2162047057 0.0531881157 -0.8162883277
C -0.647967502 0.3318101001 1.2193925022
C -1.1871199039 1.1517286695 0.0197561062
C -1.2454650314 -0.1361073982 -0.8400658324
C -0.441268321 -0.8172338393 0.2511140999
O 0.1579895196 -1.8612085261 0.3155536348
H 1.7630310195 -1.6705532481 -0.3119718489
H 0.2449279423 0.6860158924 1.7311593819
H 3.133136375 0.5245885089 -1.23560058
H -1.4154045734 0.0823939382 1.9565176136
H -2.1326020039 1.6666952823 0.1754460209
H -0.4403906827 1.8481924532 -0.3544806941
H -0.7925072001 -0.1250646788 -1.829447034
H -2.2469246814 -0.5701945386 -0.9022575091
