13
0
C 1.8507292132 -0.8591616583 0.7874560445
C -0.549307133 1.4042569428 -0.4472288197
C -1.1263480672 0.1858046033 -1.0701201287
C -1.6850345745 -0.0245544026 0.3115890286
O -1.1294272694 1.1510374065 0.7256709896
H 2.1391619266 0.0230472213 1.3570241625
H 2.3180997321 -1.7401487976 1.2249245311
H 2.1855731198 -0.750509687 -0.2438444565
H 0.4194189554 1.8870557109 -0.4692678628
H -1.9209289702 0.3521971001 -1.8008203536
H -0.3915495992 -0.5168244417 -1.4636373547
H 0.7658462264 -0.9755541156 0.8206269819
H -2.7106015601 -0.2070078822 0.6176392376
