10
0
C 0.5565636577 1.2591260524 0.6176156244
C 1.3161981122 0.2235159827 0.0522497626
N 0.7906253691 -0.8824326669 -0.4807014477
N -0.486885558 -1.1738955941 -0.5585522889
C -1.2759756223 -0.2503345238 -0.0471971071
C -0.8016008649 0.9342322445 0.5258167831
H 1.3893945665 -1.5955627734 -0.8763113703
H 2.4030680926 0.2374213158 0.0006862391
H -2.3332217254 -0.4856621338 -0.1095698463
H -1.5534960273 1.6203950966 0.9110066511
