17
0
C -2.491712075 0.2405101039 0.8579643368
C -0.8864239483 -0.6131165792 -0.9099216694
O -1.1743230705 0.4314965848 0.3291027571
C 0.5949035448 -0.6829393242 -0.7879614811
C 1.5842346932 0.5193493766 -0.7933077908
C 2.0743636222 -0.0388578849 0.5358273104
O 0.9560553662 -0.9482136839 0.6203862035
H -3.1907656249 0.6320745683 0.1238337831
H -2.6718432305 -0.8236647415 1.0028142392
H -2.5687091639 0.8031368848 1.7885817148
H -1.1415726368 0.0164231956 -1.7738812064
H -0.5056578532 0.0192378428 0.9313657911
H 0.9399631555 -1.4904428354 -1.4429952986
H 2.2995418159 0.5498896107 -1.6129874192
H 1.0814634658 1.4825944311 -0.7098395319
H 2.1093417606 0.6369640742 1.3934350063
H 3.0152831791 -0.5925066234 0.4757842554
