12
0
N 2.0436325553 0.1626839804 0.1878895935
C 1.1760984456 0.3039943938 -0.7686761369
C -0.0239150688 1.0295299431 -0.4457830785
C -1.1982316768 0.5518790105 -0.0056012962
C -1.4842583715 -0.8624958195 0.2671636785
N -0.7942086696 -1.8828254199 -0.0387147078
H 2.9107120936 -0.3227679835 0.0170156487
H 1.8942344359 0.4794600604 1.1430799819
H 0.0443319201 2.0877482267 -0.696407849
H -2.0207959562 1.2451334015 0.1264649896
H -2.4297403628 -1.0497908072 0.7827220201
H 0.0536356552 -1.6260809864 -0.5495888439
