14
0
C -2.23543573 0.0801719334 -0.2763867211
C -1.4117724722 0.9409831309 0.6459962951
C -0.2846259454 1.4929713011 0.2909996629
O 0.7224540837 1.9779491813 -0.0306167839
C 1.9658562157 -1.1882122616 -0.3711756945
O 2.66634539 -0.3302828315 0.4987709888
H -3.2323262901 0.5019055753 -0.4154962038
H -2.3468052984 -0.9265511631 0.1303776635
H -1.7688018082 -0.0053980016 -1.2574667055
H 0.898113385 -1.249273238 -0.1233856937
H -1.7244742441 1.1312459204 1.6649443458
H 2.395043041 -2.1841527328 -0.2616859801
H 2.0651953425 -0.8876921842 -1.4209750696
H 2.3306993304 0.5611083706 0.3756358961
