15
0
C 2.0656954866 0.4373682624 0.152185236
C 0.8132353493 -0.3248222296 -0.2070378807
C -0.182516289 -0.4418456887 0.9637913567
N -1.2369730363 -0.0505647022 0.0141528773
C -0.2514035118 0.5477815123 -0.9010621986
C -2.1991194892 -0.8094107078 -0.3516959828
H 2.6511143536 0.6653605531 -0.7425799761
H 2.7082843617 -0.1612389741 0.8033118421
H 1.879969815 1.3996498901 0.6734310482
H -0.4078813236 -1.3789007187 1.4738868212
H -0.0587553536 0.3672870731 1.7028002257
H -0.1461723503 1.6167094307 -0.6513138202
H -0.534106748 0.4365028111 -1.9483083787
H -2.6466735258 -0.6725638966 -1.3278494817
H -2.5829597386 -1.5518556152 0.3362283117
