15
0
C -1.6065911534 -0.5562773368 0.5323520259
C -0.2043861435 -0.5147651093 -0.0615196352
C 0.6364636604 1.4730203086 -0.9277156064
C 1.1662197113 2.8146039661 -0.8239931751
N 1.5884800692 3.8810693924 -0.7983406819
N 0.3236975491 0.8300619246 0.1070550987
C 0.7362607808 -1.489217806 0.6361698891
H -2.2708932012 0.1389049212 0.0171684273
H -2.0235108956 -1.5607224863 0.4420735186
H -1.5779425065 -0.2834813514 1.588555578
H -0.2596185168 -0.7725561418 -1.1305512131
H 0.5367110751 1.0836177487 -1.9464423189
H 1.7331529417 -1.4567132401 0.1943264916
H 0.3537079679 -2.5073702468 0.5473176604
H 0.8229456616 -1.239750543 1.694975941
