11
0
O 1.926589232 -0.2176637949 -0.428808126
C 0.5797240099 -0.1612178437 -0.1692054586
C -0.1050857467 -1.4049625327 -0.5765030562
N -1.3502543224 -1.5705625669 -0.4469563722
C -0.6453842668 1.8697916087 0.9107116902
C -0.0287024626 0.8622786456 0.3729122129
H 2.3344645636 0.6045137719 -0.1480573669
H 0.5777328592 -2.1524794063 -0.9950083332
H -1.6265884861 -2.4892228468 -0.7828539493
H -1.0686214335 2.6632619673 0.302512309
H -0.7717659466 1.9465609977 1.9863704502
