16
0
C 1.6850664993 -0.4986120098 -0.9428649355
N 0.4724522157 -0.0799193438 -0.2660795545
C 0.5927267735 0.9153123744 0.6568970839
O -0.3924862541 1.6055798765 1.0586632532
C -1.7009983442 1.4678609344 0.6881052945
C -0.4732460423 -1.1505510723 0.0350680732
O -1.0852087484 -1.6415289923 -1.1203762836
H 1.4079204933 -1.1649174472 -1.7581301233
H 2.1948673958 0.3662833638 -1.3658767177
H 2.372525629 -1.0312814471 -0.273339926
H 1.5572248145 1.2142419561 1.0493450534
H -2.2331310117 2.3653207517 0.9724434007
H -1.8140938371 1.1118352431 -0.334556619
H 0.0644716006 -1.9941513613 0.4761755485
H -1.2037927558 -0.7667230681 0.7564375703
H -1.7339894279 -0.9977157581 -1.4146381178
