10
0
N 3.0035521792 -0.9357747907 0.0951526052
C 1.9980591978 -0.3789791914 0.0763185967
C 0.7562381979 0.2827373057 0.0511237358
C 0.302700776 1.5469773059 0.096462572
O -1.0375572875 1.2669974074 0.0149115772
C -1.4617414345 -1.1411165012 -0.1332571623
C -0.6618830054 -0.1067414773 -0.0395837889
H 0.6737777839 2.5580982529 0.169121917
H -2.5333828471 -1.0044875183 -0.1790351824
H -1.0482955602 -2.1390187932 -0.1656908703
