15
0
O 2.1334524427 -0.0702958368 -0.8774997053
C 1.6474212856 0.2690630289 0.3867301367
C 0.7160156046 1.426087555 0.441799392
C -2.0966761231 -0.0821086181 -0.2968192737
O -2.9092151999 -1.0596566118 -0.6241640928
C -0.7084522425 -0.6320531624 -0.286559514
C 0.1956951844 0.0405969392 0.7136456728
H 2.3171302698 -1.0120382181 -0.8896338678
H 2.3677392146 0.1538881984 1.1921097675
H 0.7995503699 2.1280685863 1.2599467141
H 0.4418190487 1.8637205564 -0.5096685712
H -3.8020806495 -0.7023953416 -0.6731617899
H -0.6949306753 -1.725453809 -0.1842607154
H -0.3431588883 -0.4039012573 -1.2994222954
H -0.0200066416 -0.1948860089 1.7500551427
