14
0
C -1.4958502123 -0.9599223377 0.3431356073
C -0.0765729367 -0.5296696282 0.0385056492
C 0.2010543091 0.9215043088 -0.3641373326
O 1.1184478155 1.0478220053 0.8062739437
C 0.8281296555 -0.2105714923 1.2182908533
O 1.199457681 -0.7629994711 2.2009629465
N 0.7734542014 1.1479872209 -1.6247377424
H -1.9803049405 -0.2647457087 1.0310102485
H -2.0880721306 -1.0081049241 -0.5718298019
H -1.4994187672 -1.9465367023 0.8070624836
H 0.4104421688 -1.2299988188 -0.6443162839
H -0.6303902166 1.60708973 -0.2001272627
H 1.5725498572 0.5587145702 -1.8106671067
H 1.0138045154 2.114761248 -1.7848772019
