11
0
N 1.9573075822 -0.4173554894 -0.8156574914
C 0.6971704319 -0.2394141129 -0.3664646843
C 0.5116789644 0.8295614316 0.6054461498
N -0.7741449775 0.8839435794 0.9244466493
C -1.7588922838 0.0670460175 0.4235702622
N -1.5060965065 -0.8614605284 -0.4254985135
N -0.2371240789 -1.036678037 -0.8424610111
H 2.6916964933 0.1341381008 -0.4155669504
H 2.1620961083 -1.1732687778 -1.4421180343
H -1.0585793401 1.5835096665 1.5969481873
H -2.7732243933 0.2233681498 0.7675144363
