12
0
N 1.6775077541 0.2677752492 -0.416095983
C 1.0266611136 -0.2466922712 0.6242692908
O 1.4354883024 -0.8860394741 1.5586726474
C -0.9127462981 1.0453336737 -0.5204932297
C -1.2221671707 -0.3950214658 -0.6190645254
N -0.4011155852 0.0529019692 0.5381938466
H 2.6748785365 0.1813524332 -0.4639702807
H 1.1240075119 0.9297234246 -0.9706136435
H -1.7319096455 1.592001304 -0.04957993
H -0.6666307096 -1.0140559346 -1.318862505
H -2.1644181778 -0.8395531896 -0.3009007909
H -0.8381486317 -0.0782967185 1.4421871033
