16
0
C 2.5547957265 0.1127939234 -0.0111421089
O 1.6301966534 -0.0790779703 1.0357110787
C -1.3021108876 0.2347887479 -0.1173770365
C -1.140901674 1.5389657922 -0.1860465094
C -1.1660892026 -1.0716689861 -0.7574303224
C -1.7310172286 -0.9285137072 0.6555067154
H 3.3494849558 -0.6218279026 0.1180703251
H 2.1004117892 -0.0405693302 -0.9974680961
H 3.0040981283 1.1122881861 0.0125571285
H -0.7336181268 2.0068072348 -1.0753501812
H -1.4245924794 2.1850070166 0.6371907853
H 0.872191424 0.4911976371 0.8737742681
H -1.8532040244 -1.3262408201 -1.5557473046
H -0.1740341455 -1.4980030505 -0.8504365338
H -1.1021158019 -1.2584717792 1.4741656708
H -2.7930421066 -1.0901939918 0.798179121
