14
0
C 1.5783762345 0.6285679472 0.438429273
C 0.3761939142 0.2785973637 -0.416249845
C -0.0160568378 -1.2027990391 -0.4173782681
C -2.1218666064 0.1336771485 -0.6272071735
O -1.2445944806 -0.9483040671 0.34848853
C -0.9923153631 0.5188545353 0.2252698331
H 1.4890958991 0.2034500148 1.4415566872
H 1.6824080604 1.7107272586 0.5406411085
H 2.4998275681 0.2462191145 -0.0051782404
H 0.4426867166 0.7200749693 -1.4097571017
H 0.6260758058 -1.8577612867 0.1721307003
H -0.2750164673 -1.6435253506 -1.3766450128
H -3.0116984366 0.1930143488 0.0179486713
H -1.0588540068 1.0709940425 1.1636348379
