13
0
C 1.5689895176 0.4613448492 0.7221567989
C 0.1059276457 -0.5770177391 -1.2997966888
C -1.338500125 -0.5136771737 -0.7684319773
C -0.8298797395 0.0214141318 0.5502888344
O 0.3728073084 0.6093290903 -0.0255013258
H 2.3726710815 0.8831726862 0.1226247502
H 1.4765128665 1.0118581611 1.6611723289
H 1.7619228123 -0.5983875933 0.9005442045
H 0.2154071157 0.1026820371 -2.1568257984
H -2.0227258555 0.1905462016 -1.2540392398
H -1.8217971913 -1.4879021211 -0.6942835667
H -0.5369162676 -0.7731028161 1.238813322
H -1.4058691686 0.7881022862 1.0700713579
