16
0
C 2.110480011 -0.531015453 -1.6189650554
N 2.1197285888 0.2094996164 -0.4078140482
C 2.0451798078 0.794540863 0.5902245742
O -0.69257695 0.5106297051 1.8833862817
C -1.3518717695 0.9206077367 0.6991937554
C -1.884683108 -0.3080173633 -0.0109828904
O -0.8446031605 -1.2256828946 -0.287691737
H 2.8686306379 -1.3112073993 -1.572767069
H 1.1221494666 -0.976284779 -1.7363431984
H 2.3254517787 0.1353784176 -2.4527850929
H 0.2131071387 0.8393269689 1.8650309721
H -2.1787796984 1.5950237027 0.9486105915
H -0.6625787648 1.457500551 0.0396706199
H -2.6567417535 -0.782871491 0.6071463325
H -2.3364792436 -0.0285237293 -0.9648287417
H -0.3847279812 -1.3498434518 0.5495777056
