15
0
C -1.1389292169 0.5842570313 0.2758710305
O -0.5248269638 1.475142851 -0.6773165898
C -0.9584602038 1.4203460162 -1.8925100248
C 0.4707578748 -1.3400667435 -0.4335116698
C -0.179527426 -0.5082873444 0.6823917918
C 1.2657401409 -0.1089337338 1.0217347077
O 1.7805064825 -0.8895419888 -0.0636905736
H -2.0390818854 0.1782187019 -0.1892076985
H -1.4068356834 1.2061135803 1.1319369862
H -0.3188450256 2.1684362464 -2.4133270017
H 0.3664185234 -2.4232945751 -0.327892388
H 0.2089280098 -1.0511773921 -1.4554583874
H -0.666034729 -1.1077650825 1.4524278917
H 1.5012131928 0.9522784338 0.9060447841
H 1.6348489096 -0.4620720007 1.9886251416
