13
0
C -1.6429471899 -0.3813173123 0.0084731802
N -1.2159958953 0.9555953674 0.4238926453
C -0.5109694787 0.2925852167 -0.6562828027
C 0.8981831856 -0.1922346916 -0.4888842843
C 2.0297364311 0.6375690569 -0.0180773509
O 1.1416796382 -0.6314298081 0.8861459535
H -1.4153813838 -1.213385132 0.6655464524
H -2.6092932272 -0.4273670768 -0.4790788041
H -0.6805833257 0.8967122112 1.2836712372
H -0.6717315097 0.7375010691 -1.6345951913
H 1.1346325229 -0.9800451086 -1.2063822343
H 1.8206317588 -1.312150936 0.8798542949
H 1.5703914737 1.5044101442 0.484977904
