11
0
N -2.182870031 0.3215353358 -0.2733371632
C -0.9747345001 -0.2102989569 -0.0537740653
C 1.5257833965 -1.1392193277 0.354731676
C 2.0941526166 -0.2625326347 -0.3708153505
N 1.2642340966 0.250641131 0.7439230853
N -0.05300208 0.658377542 0.2949981419
H -2.9330195661 -0.2811831063 -0.5493009453
H -2.4053756075 1.3062257834 -0.1872007018
H 1.2554554123 -2.1222771244 0.6874505603
H 2.6974322882 0.1322958824 -1.1648443328
H -0.2064880257 1.6366704754 0.5145590954
