13
0
C -1.4608711239 0.0862328562 -0.8571536023
N -0.2213519342 0.1253015681 -0.5083746601
C 0.5075318876 1.2083153575 0.1988225223
C 1.7252848865 0.243135654 0.0990482569
O 2.8665910238 0.3400827852 0.4664779638
C 0.8750348577 -0.6902649206 -0.5654725129
H -1.8457102524 -0.7916293826 -1.354701448
H -1.3167724557 -1.5976936934 1.7507280485
H -2.0877249622 0.9377497363 -0.6437735958
H 0.5527585712 2.1248054086 -0.3886968376
H 0.1035922086 1.3844157691 1.1958803244
H -0.5919866287 -1.7315493178 1.6270937463
H 0.9199049217 -1.6717658206 -1.0102822053
