15
0
C -2.3731542882 -0.1673544671 -0.0811278187
N -0.9659781028 0.1555957325 -0.1662660398
C 0.0192303036 -0.4983001429 0.4319043468
N 1.1620915805 0.0844829813 0.0745965388
C 0.9822168301 1.1702629405 -0.7919185337
C 2.4673670706 -0.3765273626 0.4996317171
C -0.3881250624 1.174624656 -0.9141418047
H -2.7357875296 -0.5369366842 -1.0409170985
H -2.5304088611 -0.9349966091 0.6746403244
H -2.9410991741 0.7200303012 0.1961809725
H -0.1046390461 -1.3470133582 1.0852730569
H 3.0481726593 0.4782933042 0.8376579113
H 2.3665842316 -1.0989043158 1.3105645358
H 2.9847106682 -0.841923069 -0.3390062352
H -1.0285052795 1.8284960934 -1.4858678732
