15
0
C 1.4915027618 0.5736716763 -0.1211991023
C 0.6175870474 -0.1295793641 -1.1734947225
N -0.5596298382 0.1975358976 -0.3616519405
C -1.6347851869 -0.7542556916 -0.2668949661
C 0.285290344 0.4322262976 0.8036468106
O 0.0007827925 1.5558973297 1.5810887492
H 2.4160468473 0.0904985178 0.1851003293
H -0.6839413801 1.3403094002 2.2162763214
H 1.6712728424 1.6213520988 -0.3555154452
H 0.8169911991 -1.2096982377 -1.2244248401
H 0.603234334 0.2765183489 -2.1865470912
H -1.2949078795 -1.7555018525 0.0497887956
H -2.1314568547 -0.8537106663 -1.2337877972
H -2.3801850585 -0.4016343034 0.4495929283
H 0.3464280294 -0.4642714513 1.4461249709
