13
0
N -2.0036871161 0.9002889708 -0.0812068478
C -0.7317588241 0.4468182106 0.0285853282
C -0.3582938593 -0.8567699948 -0.6509469697
N 1.0665653326 -0.8776402089 -0.4180031571
C 1.337650834 0.1832743163 0.3824063752
O 2.5805492664 0.2685821494 0.8318375444
C 0.3089363744 1.0830711573 0.658981491
H -2.7542368915 0.2909506316 -0.3477328413
H -2.2356778619 1.7161007092 0.4573098304
H -0.8531831724 -1.7168150922 -0.1887084666
H 1.6074583197 -1.7240268152 -0.3879440821
H 2.5937044854 1.0728745995 1.3671528612
H -0.5978028871 -0.8463996339 -1.7175300658
