12
0
C -1.2508585427 0.8672157054 -0.2853110997
C -0.2925441043 -1.2629730622 0.9070191686
O -0.7562226123 -0.466886147 -0.4732759786
C 0.6310705666 -0.7831033643 -0.1551297757
C 1.5529677839 0.3390684184 0.2253937584
O 2.7075443562 0.3398968921 -0.0989460508
H -1.1087164532 1.1765909809 0.7479357371
H -0.7460605224 1.5359644511 -0.9838567018
H -2.3123808352 0.8151043611 -0.5150735516
H -0.5868235538 -2.282458275 0.6257390138
H 1.0464730323 -1.4052143788 -0.9463583549
H 1.1350528848 1.1142184184 0.8935458354
