11
0
C -1.1776970284 1.5835812194 0.2314752433
N -1.516723474 0.3487816225 -0.4180500509
C -1.1163924175 -0.7560983632 -0.5950607612
O -0.814332236 -1.8641076919 -0.8314515935
C 2.0037699698 -1.2708915308 0.1047481377
O 1.7853328197 -0.1115708563 0.3178959085
H -1.6975255402 1.6495963883 1.1877513382
H -0.103397012 1.6515333918 0.3995479358
H -1.5006349925 2.4150449534 -0.3930089253
H 2.4124158724 -1.6203807044 -0.8604275376
H 1.8061300386 -2.0507914289 0.8618763047
