17
0
O 0.7592385935 -1.3403138651 2.2592008064
C 1.8916063126 0.0381987842 -0.8388508591
C 0.6530158504 -0.2089860908 -1.2379905362
C -0.5926685488 0.4765455675 -0.7742341968
C -1.5933060045 -0.4182107876 -0.0147400457
O -1.3818876385 0.313580342 1.2049060458
C -0.5547230188 1.2810225569 0.5324032867
H -0.0408204493 -0.8091805291 2.1458091748
H 2.7293645318 -0.5133509553 -1.246631658
H 2.123748866 0.8005859776 -0.1039838752
H 1.1735370178 -1.3382870843 1.3933887705
H 0.4896315347 -0.9799321179 -1.9884799772
H -1.0442848171 1.0104378935 -1.612246372
H -1.3122983674 -1.4694693099 0.0901759232
H -2.6315544962 -0.3466304126 -0.3481353564
H -1.0437488826 2.2566677877 0.4843573866
H 0.4148575168 1.3853532433 1.0229584825
