19
0
C 2.5854653003 -0.0219960461 -1.2240325426
C 2.1113614061 1.0859713879 -0.67877578
O -0.2748833026 0.8732778457 1.9765761499
C -1.0312734166 0.1914457403 1.3544037196
C -2.36654103 -0.405204254 1.2671244677
C -1.294310843 -0.5831719347 0.142310049
C -1.4804599107 0.0909270223 -1.1944212696
H 1.6179863034 -1.1563163233 1.9477960079
H 2.5118995366 -0.9778921275 -0.7174111856
H 3.0730138653 -0.0198934908 -2.1925767237
H 2.1904646586 2.0420267749 -1.1848885876
H 1.622769157 1.0855286031 0.29001128
H 1.9456208567 -1.8261337292 1.933885386
H -3.2027791795 0.2530353243 1.0554521162
H -2.6045572749 -1.2617093315 1.8870973461
H -0.8382607893 -1.5691342769 0.1124252424
H -0.5227915056 0.1936585242 -1.7057619245
H -2.1555043095 -0.4882948485 -1.8272860279
H -1.9031535225 1.09048514 -1.0729887232
