12
0
N -0.4198347718 -0.9398159443 -0.0083300735
C -0.7195878076 -0.0541403745 0.9769435386
O -1.5270785603 -0.1777856858 1.861686376
C 0.1935880128 1.1280425864 0.7161082144
O 0.8998021343 0.8129128689 -0.4690479811
C 0.6342026396 -0.5032586667 -0.8873696836
O 0.2964833849 -0.552372794 -2.2220354171
H -0.4458336331 0.0432377815 -2.3686853404
H -0.8284583013 -1.8562084065 -0.0612849571
H -0.3869509542 2.0428400415 0.586372642
H 0.8809061456 1.261034774 1.5559459761
H 1.5324207113 -1.1220401806 -0.7998782944
