14
0
C -1.9583646142 0.4252887607 0.4399704789
C -0.6871701332 -0.2357714508 -0.0108577815
N -0.0349154882 -1.1348909197 0.9367743682
C 0.6290425646 0.1167448446 0.5623335465
C 1.8629165465 0.0965193901 -0.2705477704
C 1.8283286655 0.3623289243 -1.5537231539
O 1.7859027043 0.5887009803 -2.6870874354
H -2.1524976562 1.331377974 -0.1378089887
H -1.8936845845 0.6903839691 1.4957483855
H -2.8074550545 -0.249128014 0.3135151572
H 0.4002714115 -1.9100124836 0.450363651
H 0.6439896928 0.8404265484 1.371709292
H 2.8333939174 -0.1037827611 0.1652093622
H -0.6772019716 -0.5455457623 -1.0538631115
