13
0
C -0.7055376039 -1.0645545911 -0.485771538
C 0.3602706181 -0.0204309761 -0.2964873568
O -1.3743355997 0.3216400664 1.8772859974
C 0.501251308 0.8776281967 0.6848114187
O -0.2255628488 1.1504461928 1.7751431163
C 1.4336525709 0.0492537944 -1.3139499852
O 2.3611787206 0.8207161878 -1.327680585
H -1.6883757924 -0.6251796836 -0.6550384866
H -0.7856694381 -1.7286894779 0.3733457808
H -0.4607223772 -1.675149446 -1.3577351824
H -2.0378293637 0.9824832376 2.1068279473
H 1.3554206167 1.5477180583 0.673837324
H 1.3278351894 -0.7036515591 -2.1230994503
