12
0
O 1.655244028 2.3279408079 -1.0757255444
C -0.3594127513 -0.3261295168 0.1210826568
C -1.2251708636 -1.442108024 -0.2801150183
C -1.4793770697 -0.6695559691 1.0064453694
C 0.6515195432 0.4263866261 -0.1304052719
C 1.7055272435 1.1586491212 -0.3633428839
H 2.5362744905 2.6995397622 -1.122825147
H -1.9050685368 -1.2851314533 -1.1090705532
H -0.829270034 -2.447648352 -0.1987157492
H -2.3292241283 0.002033905 1.03601691
H -1.2540069576 -1.1606609085 1.9458458004
H 2.6805810361 0.8580210011 0.0089974311
