19
0
C -2.9396323166 -1.1023970446 0.5820597905
C -2.1180607062 -0.7912020234 -0.6677414088
C -0.7072938882 -0.3924017734 -0.3495191888
C 1.934170434 0.4369164006 0.2451598036
C 3.2446981179 1.1719693905 0.3939597017
C -0.2086185018 0.7958600682 -0.6761087773
O 1.0292012665 1.2805934757 -0.4402129634
H -3.9555168397 -1.4081660097 0.3235733382
H -2.484094958 -1.911477837 1.1580936354
H -3.0011877352 -0.2271097317 1.231836677
H -2.1119228763 -1.6728428454 -1.3177385424
H -2.6022664586 0.0063456267 -1.2386378674
H -0.1025426217 -1.1186673519 0.183416402
H 2.0657451882 -0.4931447336 -0.3216580363
H 1.5168430728 0.172826663 1.2248607729
H 3.9662557482 0.5471872392 0.9226945462
H 3.1072067024 2.0943184024 0.9594592929
H 3.6566098963 1.4261421194 -0.5833258589
H -0.8047345244 1.532183965 -1.2057443173
