17
0
C 2.0159494623 0.6118364646 -0.4307940671
C 1.0887583101 -0.0649716895 -1.3627798761
C -0.2377925628 -0.8442458093 1.3756712346
C -1.0188926458 -0.3298826783 0.1987215917
O -2.2194239708 -0.9919419305 -0.000121621
C -1.0295094038 1.0624636496 -0.2128463952
C -0.3113654405 0.0748580561 -1.1685412949
H 2.7145178889 -0.1318244513 -0.033092373
H 1.6294706287 1.2322556335 0.3911692112
H 2.6526097505 1.2405048939 -1.0645078816
H 0.0450506831 -1.8890071919 1.2273774704
H 0.6670218251 -0.2711724338 1.555736715
H -0.8702079339 -0.7811171283 2.2630739535
H -2.0487405614 -1.9357422846 -0.0561497614
H -1.9607916 1.4598431983 -0.592602573
H -0.4010790649 1.7610528802 0.3225949779
H -0.9503543648 -0.2650671786 -1.976078311
