16
0
C 0.2702165249 -0.1173981054 -1.7582604617
N 1.0829295073 -0.1946382219 0.531893148
C 1.7488280693 -1.1337775405 1.0377195195
C -0.0348855948 -0.5420759707 -0.3207835787
C -1.3177762088 0.1637580114 0.1240423319
O -2.3831312566 -0.3284760481 -0.1499322531
C -1.1927900889 1.4729667468 0.8520718363
H 0.474020817 0.9536092729 -1.8099608224
H -0.5760571839 -0.3513045358 -2.4042543486
H 1.1508454004 -0.6467884149 -2.123740587
H 2.6008350603 -0.9015682208 1.6737334687
H 1.5150670754 -2.1928773289 0.8703481761
H -0.2524847789 -1.6187735007 -0.301874351
H -2.1729512329 1.9366712397 0.937035081
H -0.773351624 1.2970818777 1.8446269088
H -0.4928144859 2.1339187394 0.3385959325
