10
0
O -1.1108694705 2.0299335178 0.7657175889
C -0.6287468248 0.9701351959 0.3904232009
C -1.106167211 -0.3422844979 0.2140696251
N -0.0628488038 -1.1206174357 -0.2468279855
C 1.0405592935 -0.4113599353 -0.3782373663
N 0.7486064369 0.8387342403 -0.0095693843
H -2.0875703459 -0.7439887472 0.3818189695
H -0.1257382087 -2.0997895608 -0.4579269747
H 1.9894127612 -0.7834551754 -0.7218611969
H 1.3863823731 1.6148353986 -0.0018744768
