11
0
O 1.3119081068 -1.0109040918 -1.6347453569
C 0.8738585295 -0.2266621988 -0.8554103949
O -1.0156731985 -1.1575923394 1.7918690621
C -1.0758850863 -1.136746494 0.5928557554
C -0.5578833874 -0.0013454472 -0.2394315462
C 0.1564010261 1.1193924028 0.4883892518
C 1.3654053547 0.9164046518 -0.0494019334
H -1.5110821736 -1.9831540222 0.0267399147
H -1.2963715673 0.2869965717 -0.9932600471
H -0.2128440453 1.8314182874 1.2127328565
H 2.3304504413 1.3917816796 0.0565424381
