16
0
C 2.3545101503 0.2038079535 -0.9177504506
C 1.4895222727 -0.1920792816 0.277799696
C 0.0586503402 0.216636931 0.103956455
C -0.973851169 -0.6130584798 0.0873679292
C -2.4098801902 -0.2146374347 -0.0920426389
O -2.6401793503 1.1750970869 -0.1025814143
H 2.004996368 -0.2855614105 -1.8288397767
H 2.3184757316 1.2824581996 -1.0875201673
H 3.3980047216 -0.0741822016 -0.7591481347
H 1.5458820638 -1.2720755134 0.4392033746
H 1.8922353192 0.2790911962 1.1809550999
H -0.1229579157 1.2789249607 -0.0494051461
H -2.3408307461 1.5345772252 0.7354638103
H -0.8058573971 -1.68118934 0.2155693127
H -3.0159478151 -0.7068942703 0.6818131397
H -2.7771253838 -0.586795621 -1.0528180889
