12
0
N -2.1702316235 0.396989909 -0.1230069654
C -0.8009273613 0.0406424834 -0.0443080851
C 0.227156671 0.9933652867 -0.1060648088
N 1.4151730408 0.420918958 -0.0536913578
C 1.190161373 -1.0294425793 -0.0032457683
C -0.2779246995 -1.2440431334 0.0101716998
H -2.4764899125 0.9409536015 0.6715764783
H -2.7173566242 -0.4524463176 -0.1540316682
H 0.1402651568 2.0722599072 -0.1861917317
H 2.2929228788 0.9074845351 -0.0889260491
H 1.657978901 -1.4538850534 0.8898266372
H 1.6509361997 -1.5009435972 -0.8764563809
