13
0
C -0.9202445455 0.1202890773 0.8086222278
C -0.1944443626 -1.182652942 0.673948834
O -0.5149009694 0.8536580046 -1.5376483884
C -0.376836282 1.1509041059 -0.1423614146
C 0.7679980236 0.8260809086 -0.9834172383
O 1.4097873227 -0.3947434215 -0.9184086846
C 0.8513918427 -1.3492155044 -0.1200493566
H -1.9933545505 -0.008271336 0.6322604038
H -0.8193441263 0.5068298041 1.8282739392
H -0.5253993603 -2.032212506 1.2562948325
H -0.568308936 2.191753042 0.1068914453
H 1.4613010513 1.5752532929 -1.3489783372
H 1.3824708923 -2.2865245255 -0.2152412628
