16
0
C 2.1523688195 -0.5369827516 0.0159109118
C 0.9507551596 -0.7220623547 0.9187707274
O 0.3864030967 0.5203137133 1.3400202669
C -1.8095460913 0.7546499073 -1.3376127246
C -2.5181430819 0.0144859383 -0.4920306992
O -0.6730603198 1.4258732313 -1.0726151635
H 1.8833495744 0.0541026179 -0.8607061927
H 2.5253240125 -1.5057141097 -0.3219526097
H 2.9684578212 -0.0318495015 0.5398023977
H 1.2049173542 -1.3253345815 1.7966187101
H 1.0524503901 1.0252424854 1.8109582625
H -2.1104407864 0.8848942511 -2.3721807964
H 0.1456641354 -1.2324696648 0.3878929455
H -2.2340611331 -0.1012455243 0.5475840143
H -3.4173396662 -0.4750758493 -0.8366973299
H -0.3843732848 1.2453821928 -0.15924372
