9
0
O 2.1118495454 0.1391616761 0.1235967417
C 1.1207820248 0.9658142724 -0.0212555922
C 0.2349979447 1.7641653581 -0.1298539544
N -1.9767548541 -1.105183923 0.3924154936
N -0.8964534665 -1.4857616232 -0.0302191054
N 0.0502419758 -1.9539655369 -0.4064314468
H 1.8325626565 -0.7567120951 -0.1146905623
H -0.5116991203 2.5088396961 -0.2633000836
H -1.9791867064 -0.0884508245 0.4486025095
