21
0
C 1.8097745601 -1.4621315637 0.8303205057
C 1.0486876094 -1.3049778496 -0.44991626
C -0.1317112101 -0.7323732553 -0.5412085587
C 1.1672055344 2.8042332224 -0.4503048056
C -1.261454268 -0.3176830976 -1.3723416546
C -1.2524365535 -0.0867000128 0.1415858782
C -2.1754125558 -0.8828818955 1.0313780039
H 2.777905889 -0.95695797 0.7747079612
H 1.254750162 -1.0427113144 1.6699535186
H 2.0115500126 -2.5153924349 1.0426106407
H 1.2619557319 1.7391811702 -0.6600003841
H 1.5138948341 -1.6877530023 -1.3551826633
H 2.0126711761 3.3374189333 -0.8824915376
H 1.1527226249 2.9611414504 0.627580936
H 0.2420978114 3.1828786728 -0.8836701572
H -1.1449176433 0.5454856428 -2.0184415432
H -1.931698767 -1.0804670187 -1.7553719105
H -1.0984630079 0.9461529359 0.4436925403
H -1.7854179634 -0.9408309599 2.0497756723
H -2.2813988001 -1.9038266673 0.6588872927
H -3.1684421767 -0.430021986 1.0744565249
