13
0
C -2.0681860993 0.8976714976 0.0676464773
C -0.9259668898 0.2657602056 -0.1274142169
C -0.614335236 -1.1537287989 -0.5494206154
N 0.8403123974 -1.2234094742 -0.5429832264
C 1.2366923967 -0.0665085156 -0.2169110923
N 2.512833443 0.3868551831 -0.1321528251
O 0.2954022365 0.889268134 0.0500843278
H -3.0018749169 0.3740244296 -0.0794670379
H -1.0439818048 -1.8832268491 0.1416990802
H -2.0951155303 1.9339672826 0.3737378437
H -1.0120785552 -1.37214368 -1.5442874161
H 2.6688901522 1.1916620673 0.4474284632
H 3.2191604065 -0.3264884819 -0.1135897621
