12
0
O -1.7299814013 -1.4985094117 0.5222151348
C -0.9117695142 -0.6922150052 0.1839315079
C 0.5164418771 -0.9553978862 -0.2673897421
C 1.2121947694 0.3797923395 0.010295425
C 0.2319058837 1.4866229379 0.196509
C -1.0840628203 0.8250030362 0.1571028898
H 0.4918203423 -1.1849530749 -1.3369950554
H 0.9388714719 -1.8196959312 0.2421466197
H 1.6723777237 0.3864249158 1.0149374081
H 2.0354281427 0.6516707309 -0.6521203269
H -1.8765304323 1.2341927761 0.7828308387
H -1.3682160427 1.0874695729 -0.8824626997
