10
0
O 2.1985538455 0.9748979391 1.3907320716
C 1.7806423124 -0.0782344531 0.9593715551
C 0.8728052043 -0.2029451331 -0.165444669
C -1.4059601561 -0.0446641796 -0.9731077927
N -0.3795999071 -0.0041781551 0.0587289747
H 2.1633476371 -1.0511119963 1.3394822122
H -0.9193764463 -0.2780935254 -1.9163850901
H -1.9030403794 0.9241900352 -1.0406359659
H -2.1470297745 -0.8098626303 -0.7375674224
H -0.7226873361 0.2425030987 0.9857801266
