14
0
C 2.2530833004 0.0170910466 -0.0459037315
C 1.0262460395 0.2060921166 0.7405645011
C -1.7673844283 -1.1934392828 -0.1292313622
C -2.0429823333 -0.0285056067 0.447080448
O -1.2543918199 1.0576717519 0.5598908707
C 0.0302038004 0.9575610483 -0.0109442813
H 2.1373358882 -1.0401509626 -0.3414146344
H 3.1543085997 0.0283495156 0.5677888489
H 2.3859733417 0.6084874047 -0.9635267623
H -2.5287664096 -1.959680706 -0.1332732227
H -0.8175473548 -1.4367129254 -0.5831517232
H -3.00649873 0.1613073457 0.9057944125
H 0.4561573182 1.9760996199 0.0304139827
H -0.0441452123 0.7005786339 -1.0818313465
