11
0
C -1.6856212542 -0.3331898765 -0.0955354789
C -0.2290773938 -0.3683591743 -0.4727376557
C 0.6848067308 0.4955182025 0.3398148693
N 1.7925903871 1.2183960584 -0.4291556363
C 2.1154046385 0.2558760736 0.2783231568
O 0.1997447952 -1.0474164302 -1.3727059105
H -1.8087011747 -0.5974719493 0.9578069297
H -2.0720054584 0.6818990841 -0.217801733
H -2.2521921629 -1.020750142 -0.7186020329
H 0.2520317021 1.0450212545 1.1703356708
H 2.9802191903 -0.3251841006 0.5611088207
