14
0
O 2.6232037979 0.4432769629 -0.2225436558
C 1.2655978122 0.3482663127 -0.5392681415
C 0.5243966808 -0.9086020039 -0.0737135512
C 0.3016261135 -0.4304669842 1.3837269458
C -2.0846177695 -0.2068431574 0.1657535778
N -0.6547011557 -0.1253780904 0.2881948155
C 0.3676533375 0.8826820317 0.5647530683
H 3.1367460364 0.0505557617 -0.9293990283
H 1.0707691367 0.6955699974 -1.5652784651
H 0.4458288994 -1.9191352278 -0.4569757378
H -2.3876711848 -1.2400114229 0.3318020245
H -2.4119491787 0.1247753831 -0.8211079874
H -2.5360186015 0.4159878467 0.9371357655
H 0.118830076 1.8835565904 0.89445437
