10
0
O 1.916493413 -0.6107355461 -0.7606595629
C 0.7485804262 -0.1578783669 -0.30058792
C 0.3809276161 0.7982002081 0.5460983994
O -1.0152031711 0.8709636284 0.5538772892
C -1.3933427365 -0.3722086638 0.0218882955
O -0.3309862586 -0.7901846222 -0.8306580199
H 2.6072118263 0.0225858775 -0.5545705487
H 0.9371644642 1.5159556128 1.1204347757
H -2.308407401 -0.274082721 -0.558980686
H -1.5006061787 -1.1136094069 0.8295729776
