20
0
C 2.8560271644 -0.0469664044 0.1127576149
C 1.3399012777 0.0859611693 0.0907366492
C 0.79614404 0.2620761137 -1.3215434706
N -0.6511052226 0.299700109 -1.3117740342
C -1.224497906 1.3315743472 -1.742726122
C -2.2870335272 0.0143436195 2.0411030588
C -2.4035932768 -1.1030984191 1.3432658479
H 3.3389819209 0.8337924463 -0.3177666498
H 3.1848061348 -0.9179706477 -0.4594372353
H 3.226207919 -0.1618935106 1.1324828519
H 0.8715177213 -0.7934151679 0.539495175
H 1.0291654336 0.9419031639 0.697572238
H 1.0968478903 -0.5960291692 -1.9310759852
H 1.2261116047 1.1650826613 -1.7831545287
H -2.3118944294 1.3842231878 -1.7288448103
H -0.6800228276 2.1988231551 -2.1393949312
H -1.7836688774 0.8816669193 1.627838338
H -2.6874131336 0.1106083775 3.0443840984
H -2.9052085513 -1.9743907432 1.7501614461
H -1.994806355 -1.1759642077 0.3410104491
