14
0
C 2.079702655 -0.1395191746 0.4732840388
C 0.5999480307 -0.1772371465 0.6079283312
N -0.1665655783 -0.588625202 -0.3609256385
C -1.5207574217 -0.6929864189 -0.4502547736
C -2.2923051424 -0.3816477969 0.6695292017
N -2.8770548282 -0.1069389609 1.629675281
H 2.4022511331 -0.4670946852 -0.5176878093
H 2.5615743868 -0.7858834612 1.2116957155
H 2.4636937786 0.8713571216 0.6317008675
H 0.1065724917 0.129793992 1.5210717292
H -0.5924594958 2.4160000467 -0.2598013972
H 0.31577162 -0.8643296866 -1.2073053342
H -1.9350411455 -1.0775448942 -1.3639192181
H -1.2037384841 2.0882352665 -0.5383319943
