21
0
C 3.3396888851 -0.1081872333 0.0065121101
C 0.2730355298 -0.7807096034 -1.0593616624
C -0.3994628709 -1.4930648262 0.0260209642
C -1.4926015091 -0.511745698 -0.5857613582
C -2.6006187079 -0.1120924456 0.3778697261
C -0.3327123082 0.5485903545 -0.823436858
C -0.0442532174 1.4287400011 0.3820243269
H 2.7856644386 -0.1967920182 0.9405816374
H 4.2849169097 -0.6418050787 0.0945145905
H 3.5357963775 0.9434105194 -0.1996682303
H 2.7566575909 -0.5368227734 -0.8098376669
H -0.4963696991 -2.5719345211 -0.0672352811
H -0.2871969173 -1.1862550626 1.0677405098
H -1.9258450431 -0.8755478279 -1.5119499648
H -2.2141499206 0.2592339228 1.325829374
H -3.2200852691 0.6679301274 -0.0688713133
H -3.236885034 -0.9742093441 0.5839380912
H -0.3940957747 1.1563823974 -1.7266504028
H 0.8739203249 1.9880489125 0.1973605301
H 0.0951843883 0.8655683091 1.3046997528
H -0.8449631734 2.1538158882 0.5446231247
