12
0
O 2.4887694246 -1.3958253598 -0.4940073448
C 1.4729140076 -0.858179904 -0.3391999257
C 0.3206487717 -0.2672196253 -0.3091459695
C -0.4712538752 0.9532891994 -0.11837305
N -0.9538566365 -0.3446900892 0.3171214977
C -2.0410511933 -0.955860215 -0.3176897699
O -3.0575681285 -0.3870248662 -0.5882466906
H 3.2455517484 1.146297351 1.5270557506
H 2.5973458464 1.1518882737 1.8939821244
H -0.9521873059 1.3860097253 -0.9895512734
H -0.2030159807 1.6406429349 0.6751299413
H -1.8819656786 -2.0352454247 -0.4736062902
