10
0
C -1.4545519805 -0.2553242132 0.0700013309
C 0.0408871009 -0.2565070705 0.1732785702
N 0.6494450206 -1.4073124625 0.7441054124
O 1.8543024068 -1.4456463612 0.7597352118
N 1.592360994 1.6476715484 -0.3997288159
C 0.8369075084 0.735525272 -0.2059484295
H -1.8967586136 0.640346538 0.5067897993
H -1.8205903467 -1.1223667481 0.6208444041
H -1.7979100085 -0.3413053275 -0.9621665489
H 2.0580119184 1.7637268247 -1.2925569345
