16
0
C 1.3140094379 -0.9306654694 0.7430630483
C 1.274037318 0.1021038357 -0.3529439352
C 0.4170147019 -0.0791075895 -1.5544567644
C -2.0868729485 0.0592087532 0.9455920628
C 0.0799582986 1.0115360477 -0.5607705253
C -1.112811179 0.8749183341 0.2523541719
N -2.0149118571 1.565390034 0.7703571809
H 0.3638321121 -1.4577100303 0.8298574236
H 2.0885874455 -1.6708373858 0.5336571431
H 1.5358072009 -0.4739550509 1.709613846
H 2.2183957789 0.6061649843 -0.5262223133
H 0.779695985 0.2348070959 -2.5236579086
H -2.8690270531 -0.4586524234 0.3966297343
H -0.2404937846 -0.9396050348 -1.5704818976
H -1.877785112 -0.3280802146 1.939107937
H 0.2894416555 2.033380114 -0.8522942035
