17
0
C -2.0593727305 -0.5890487057 -0.2677639828
C -0.7712585987 0.1710015395 -0.5459816069
O -0.9919386033 1.2925587196 -1.3787377649
C -0.09969033 0.5728924458 0.7623893856
C 2.3020336204 -0.9171600145 0.3360250663
C 2.2314056621 0.4086966149 0.3823614427
O 1.1554503433 1.1937767675 0.5824518305
H -1.8661339095 -1.5187422821 0.2716145051
H -2.7452454736 0.0139870365 0.3355908266
H -2.5562934485 -0.8315777619 -1.206724797
H -0.0893144854 -0.4616407912 -1.1181736387
H -1.5488132828 1.9210638074 -0.9126728131
H -0.7198307309 1.3165864153 1.2720590984
H -0.0047112519 -0.2918425809 1.4283109765
H 1.4491559756 -1.573304191 0.438346841
H 3.2683204573 -1.376116406 0.1862513919
H 3.1157097861 1.0241553867 0.2621232387
