12
0
N -1.869597222 -1.1725309385 0.8228849566
C -1.1244726361 -1.0752148236 -0.2602547702
N 0.1847506353 -1.0378840121 -0.0612979178
C 1.0464838604 -0.130542916 -0.2160306731
O 2.3773709672 -0.3951527501 -0.1907022247
C 0.7390111591 1.2784100169 -0.5068373519
N -0.4516621397 1.6946681685 -0.4050939808
H -1.5030128932 -1.0932052005 1.7636717863
H -2.8641116321 -1.251263308 0.7214171979
H 2.4827042048 -1.3445925219 -0.0742813489
H 1.5882968603 1.8861069561 -0.8301424553
H -0.5257451641 2.6662373293 -0.6968032181
