11
0
N -1.8313904536 -0.0031101089 0.1016040119
C -0.3564324935 0.0321278393 0.0277910001
N 0.2704607869 -1.1111606223 -0.2090010615
N 1.5311955236 -0.6800511055 -0.2017853091
C 1.6127053041 0.6645724369 0.031309276
C 0.3447713879 1.2178697525 0.1988905679
H -2.2568722008 -0.3117524902 -0.7704245657
H -2.1684353421 -0.5935533743 0.8594992135
H 2.2708939944 -1.3409766069 -0.361208061
H 2.5922602876 1.1236188024 0.0584309039
H -2.0752597944 0.9742664771 0.2842330237
