17
0
C 1.6768177804 -0.9491078385 -0.3961298983
C 0.8577817096 0.323816778 -0.4537117734
C -0.0575771566 0.5469696061 1.9000802685
C -0.79364867 1.510405333 1.0282252716
N -0.3248612485 0.2607436911 0.4189752467
C -1.3425135394 -0.6997775213 0.0044860209
H 1.9152867495 -1.1759378587 0.6441033991
H 1.1588991233 -1.801010805 -0.84012315
H 2.6097670931 -0.8113379474 -0.9436242227
H 1.450267762 1.1591343644 -0.0859804394
H 0.5265029282 0.5491136657 -1.4736226
H -0.7866563965 -0.0675271428 2.4414768874
H -0.2858124012 2.4011559949 0.6637606229
H -1.878984986 1.6068747086 1.0054371064
H -0.9538406258 -1.7126299146 0.109509747
H -1.6335076955 -0.5275920758 -1.0351505812
H -2.2113934267 -0.592383038 0.6492610945
