12
0
C -0.0617709913 1.2686544026 1.0690355144
C -0.2233445192 0.174181565 0.0542902391
C -1.4185758748 0.2004071889 -0.8215086407
O -2.2624985429 1.0557436987 -0.7600586044
C 0.618121926 -0.8139920563 -0.1199748162
C 1.4307501409 -1.8040637926 -0.3234812702
H 0.8468092339 1.133952527 1.6524895414
H -0.0279694414 2.2382242038 0.5697685024
H -0.9222350447 1.2856320041 1.7395676387
H 1.3187297696 -2.7392844324 0.2129508182
H -1.488140556 -0.6314861446 -1.5486423871
H 2.2477878998 -1.7163581641 -1.0304345356
