14
0
N 0.1841244714 3.1723365236 0.0611616127
C 0.1928001534 2.10059617 0.4693981452
C 0.202600753 0.7374282796 0.9989023511
C 1.5017605669 0.005260297 0.7676195381
C 1.2428208479 -1.149554375 0.1509222935
C -0.1983496821 -1.2584986201 -0.1039921932
C -0.8180476157 -0.1705090871 0.3582075332
H 0.0069609707 0.8040103715 2.0774557945
H -1.9464614953 -0.2468227578 -2.6322050526
H 2.4599122267 0.3879382395 1.0856939252
H 1.9727307939 -1.8986726989 -0.1225692681
H -0.674023302 -2.0979470618 -0.5921532156
H -2.4628360688 -0.4041505004 -3.1458944953
H -1.8725636202 0.05923922 0.3188080314
