10
0
O 2.6488345546 0.3113669017 0.4061710319
C 1.7843119973 -0.3168171348 -0.1360767792
C 0.3526159473 -0.0255094208 0.0005418604
N -0.665011952 -0.6679465163 -0.5535756428
C -1.9127751273 -0.1373451128 -0.2201647578
C -1.4924201155 0.8854930502 0.5898424747
O -0.1177964534 0.9493458762 0.7209526509
H 2.0016735901 -1.1800017415 -0.7942384305
H -0.5520273001 -1.4664591544 -1.1585020567
H -2.0178141411 1.6458112525 1.1418306492
