10
0
O -0.2804282648 -1.3538848246 0.6562807415
C -0.7953899171 0.5497767472 -1.4632935081
C -0.1840728163 1.010190956 -0.2452275801
O 1.0313167022 0.3647812293 0.139187229
C 0.9837911574 -0.9020260187 0.5374307732
O 1.9558231022 -1.547410711 0.7844883918
H -0.2155134859 -2.2767975995 0.92382984
H -1.7229522328 1.1446173383 -1.5540347902
H -0.8472259272 1.1202911088 0.6214284162
H 0.1143456821 2.0371817743 -0.5358055135
