16
0
C 1.8384174952 -0.6048335387 0.1099371208
N 0.8363337034 0.4351499594 -0.013648681
C -0.1963622105 0.5981936616 1.0490674402
C -1.0190012201 1.3449441435 -0.0711533995
C -0.3145183852 0.2689162837 -0.9206621525
C -1.0476548164 -0.9648169916 -0.3607835195
C -1.0809910288 -0.5997932438 1.1004032478
H 1.4522217688 -1.6193887099 0.2723896583
H 2.4433316919 -0.6129785267 -0.7986293865
H 2.496282246 -0.3578154028 0.9442842119
H 0.1010208212 1.0911433118 1.9707838549
H -0.6196778044 2.3496995306 -0.1904578535
H -2.1074144928 1.3360013871 -0.0277908216
H -0.1358439033 0.3686370336 -1.990443986
H -2.0555219882 -1.1374349956 -0.7453658933
H -0.5139348767 -1.9146839023 -0.4780188406
