17
0
O 1.9105329318 -1.2122752015 0.1246096708
C 0.8494355215 -0.6486458821 -0.0217764524
C -0.4598441773 -1.4052510708 -0.0926658863
C -1.6220677665 -0.5920148865 0.4666049894
C -1.7269313029 0.7628551182 -0.2246960837
C -0.3983752806 1.4509123409 -0.3085064876
C 0.7681768001 0.8186169755 -0.1895619946
H 4.7967052722 0.4204328679 0.3490987166
H 4.1595119749 0.031723342 0.3167184296
H -0.3333794408 -2.3590271809 0.4193466404
H -0.6350766136 -1.6282942688 -1.1523632526
H -1.4631885156 -0.4311603104 1.5374407919
H -2.5577350311 -1.1453277346 0.3664745268
H -2.1230108737 0.644489564 -1.2415058939
H -2.4383960482 1.4077145642 0.2967678192
H -0.4042920346 2.5239457451 -0.4780660429
H 1.7132215845 1.3470660177 -0.2343064908
