19
0
C 3.2389011384 -0.441762477 -0.5416234132
O 1.9324102304 -0.4814837396 -1.04908203
C 0.955886677 -0.4314033555 -0.0373756361
C -1.5335171815 0.4942997982 1.2068637744
C -2.410500248 1.5946469347 0.7993262126
C -0.4040960445 -0.4128240052 -0.7097762369
C -1.5926150042 -0.6395562804 0.2625598719
H 3.4357484515 -1.2867276698 0.131619699
H 3.4273966752 0.4889999196 0.0095355416
H 3.9222620095 -0.4973969381 -1.3880746856
H 1.041740171 -1.3085648333 0.6216551551
H 1.0987940694 0.4563709463 0.5922227464
H -2.0944474247 2.5775252434 1.1489663733
H -3.2933663334 1.3364273313 1.4155420224
H -2.7493741773 1.6187608338 -0.247444286
H -0.4322483066 -1.2109233157 -1.453813607
H -0.5293131885 0.5280771978 -1.2516404435
H -1.4377591309 -1.5966031039 0.7661004928
H -2.511400383 -0.6874674861 -0.3425795513
