14
0
C -3.3381883643 0.7119064581 0.0694894699
C 0.5329154613 0.8815832071 0.4483937117
O 0.1718594911 -0.2639452406 -0.0823491198
C 1.2924880309 -1.1127115554 -0.3868501931
C 2.4469187258 -0.2812411713 0.0584333584
N 3.6638745225 -0.5376122804 0.0266060932
O 1.8704068652 0.8955761333 0.5420064583
H -4.2034967098 1.1745029969 0.5423716307
H -3.3450648379 -0.3590077896 0.2691068713
H -3.3820031564 0.8785462275 -1.0061819178
H -2.4224514521 1.1478265892 0.4658021759
H 1.3096406282 -1.3173427257 -1.4559376207
H 1.204342532 -2.0431205053 0.1711678395
H 4.2238342634 0.223796656 0.4014632426
