16
0
C 1.3888384353 -0.3131607434 0.6699805959
C 0.2320018637 -0.6686434357 -0.2635997006
C -1.1283786699 -0.3309943157 0.2795202089
C -1.3969475214 0.2848526637 1.4202601508
C -0.229719167 0.8960163572 -2.1999483373
C 0.4725499505 -0.0699654201 -1.6286481742
H 1.2899421629 -0.8163927497 1.6334354073
H 1.4319118973 0.7641794132 0.842690657
H 2.3401856016 -0.6164091985 0.2293494716
H 0.2469016923 -1.759002878 -0.4009312159
H -1.9577715098 -0.6417409627 -0.3519858316
H -2.4197608653 0.4713711681 1.7241942612
H -0.6192257301 0.6236553947 2.0947281169
H -1.0891361485 1.3447050139 -1.7144184548
H 0.0384591182 1.2767021704 -3.1778819348
H 1.3332628902 -0.4757944775 -2.1561082204
