19
0
C -2.2004219392 0.288615091 -0.2308444495
C -1.7733745744 1.2341375984 0.856114742
C -0.9425855109 1.0889497264 -0.3831883275
C 0.4375347615 0.4646779794 -0.3861272111
C 0.6549773648 -0.7175962594 0.5510310838
C 2.0857669282 -1.2355605152 0.5265863139
O 2.4625794521 -1.7953841133 -0.7178307345
H 0.4244933242 -0.4293972003 1.5816033775
H -2.1149214382 -0.7715757253 -0.0313524657
H -3.053142258 0.5565985462 -0.8406596443
H -1.4078948095 0.802255254 1.7787186413
H -2.3330199395 2.1506974212 0.9883194747
H -1.0226183381 1.9211877769 -1.0748470405
H 0.6544694701 0.1508793644 -1.4137264537
H 1.1677794525 1.2453199359 -0.1399714864
H -0.0128933332 -1.5427756958 0.289343071
H 2.7795548073 -0.4332555342 0.8138136038
H 2.2010043403 -2.0391648842 1.2558062214
H 2.5319332403 -1.0921797661 -1.3649827161
