14
0
N 1.7177087491 -1.6101346776 0.1637561504
C 0.9289323142 -0.6798603716 -0.1486936417
O 1.3452707076 0.4008491332 -0.8554223584
C 0.4069858829 1.4255257484 -1.2195539172
C -1.002017066 1.1591108108 -1.4198448041
C -1.4006306145 -0.146993004 -0.8905263987
C -0.5221058098 -0.7097159058 0.2281923114
H 2.6590629056 -1.4066357336 -0.1667485576
H 0.8691871643 1.961112319 -2.049091193
H 0.3126873271 2.1785227366 -0.406538366
H -0.662180116 -0.0994400154 1.1264177182
H -1.2748315621 -0.7446937076 -1.8179986173
H -2.4664312645 -0.2062193245 -0.6654000606
H -0.7801256179 -1.7331460079 0.4912387345
