13
0
C 1.7757446079 0.2908905795 0.6825182984
O 0.6808608555 -0.3731119956 0.6400309305
C -0.5061620671 0.0044112587 0.2029477369
C -1.6184563421 -0.9743183511 0.3461013443
C -0.6522379991 1.3504346601 -0.1619024964
N -0.7046898395 2.4686779614 -0.4510695921
H 1.7940491796 1.3309820688 0.3833136104
H 1.5639741598 -0.0739748216 -1.9334316983
H 2.6236381208 -0.2568087777 1.058909817
H 0.8308557421 -0.1815580879 -2.0501201373
H -1.251868925 -1.9878508935 0.1789727957
H -2.088528882 -0.9380825869 1.3342918817
H -2.3889616109 -0.7686910143 -0.3966074906
