19
0
C -2.6621907652 -1.3163203715 0.2972309767
C -2.1081192021 -0.3343601721 -0.7337955995
C -0.7801144352 0.2376754358 -0.3384063915
C 3.0011962381 -0.2493298193 0.9143991437
C 3.2325328433 0.1118125564 -0.338456819
C -0.5663702108 1.5326122726 -0.1409589463
O 0.5943654642 2.1247318306 0.2269853903
H -3.614908422 -1.7384713215 -0.0289649295
H -1.9686002678 -2.1450065998 0.4600834198
H -2.8168530562 -0.8225227897 1.2586820169
H -2.0180841903 -0.8452689953 -1.6986885926
H -2.82156051 0.4803894569 -0.8876082952
H 0.0389641971 -0.4641104011 -0.1912863939
H 2.3074592667 -1.0461507755 1.1587041694
H 3.4987134842 0.2341410326 1.747413005
H 3.9292555827 0.9059063883 -0.5813418365
H 1.288404106 1.4593641078 0.3168774083
H 2.7374272706 -0.3729528885 -1.1726509804
H -1.3545203934 2.2677120536 -0.2701157458
