16
0
C 1.59448092 0.6515865468 0.5678527235
C 0.5032057821 -0.0901549966 0.7013519099
C 0.5403629442 -1.5692439119 0.9434033649
C -0.8623173239 0.5501029908 0.6490592469
N -1.7430911384 -0.0529675595 -0.3222538555
C -1.7308740411 -0.3836841146 -1.4710887748
O -1.8366567607 -0.7508626921 -2.573760051
H 1.5369926729 1.7198628649 0.3920162216
H 0.5277245114 1.669691704 -2.138335371
H 2.5847216777 0.2166733733 0.6360195436
H 0.0206755952 -1.8222838851 1.8717046114
H 1.5649465011 -1.9328403804 1.0095036001
H 0.035662946 -2.1114950322 0.1407826865
H -1.3496457913 0.4521333754 1.6221445114
H -0.7699949089 1.6172200058 0.4375560789
H 0.0196044137 1.8442907116 -2.6552074463
