10
0
N 3.0904579177 -1.0193674882 0.5638683815
C 2.0178291604 -0.7658145825 0.2500616147
C 0.6662491744 -0.4317885387 -0.1265431183
N 0.0227696426 -1.0232459246 -1.1298766695
C -1.228265445 -0.4775795712 -1.215513257
C -1.3034567751 0.5546599272 -0.1219172161
N -0.0013674944 0.4972275989 0.5281441173
H -2.1115840174 0.3129135213 0.5739750093
H -1.4978176353 1.5431403619 -0.5474591454
H 0.3472614719 1.0305616958 1.3063992836
