15
0
C -1.9660693013 0.4465669059 -0.3053294801
C -0.4732808815 0.2117928693 -0.1064760265
O -0.3067558153 -0.3384197046 1.1856937559
C 0.9558445396 -0.4590268214 1.6396577514
C 2.08930361 -0.1092309202 1.0411601532
C -0.0289340337 -0.76847848 -1.1622430009
O 0.1813226988 -0.0779441998 -2.2541107812
H -2.5048164601 -0.5018039178 -0.3011692226
H -2.3407638863 1.0638950412 0.5102096487
H -2.1451245705 0.9562629198 -1.2516375733
H 0.0694835127 1.1656278164 -0.1748392726
H 0.9517929385 -0.900851329 2.6295339319
H 3.0200508194 -0.2746707044 1.5640118333
H 2.1446798685 0.324951105 0.0530725165
H 0.4102769612 -0.6900695805 -2.9615222338
