19
0
C 2.4289578669 -0.799631642 -0.229588259
O 1.74465829 -1.5367034265 0.8014773008
C 1.3472956299 -1.003964361 1.9030116189
C -0.4081141031 1.3895249325 -0.1582155916
C -1.9015623042 1.5026951648 -0.0471639125
C -1.230164793 0.1941330116 0.2328264721
C -1.3988469767 -0.9581913764 -0.721959889
H 2.5870901078 0.2293903603 0.0988077637
H 1.806774408 -0.824951059 -1.122863308
H 3.3764372376 -1.3006129037 -0.420475984
H 1.6580321024 0.0770040943 1.8777439727
H 0.1940225649 1.8795721888 0.5962348639
H 0.0231131626 1.4028185788 -1.1524447616
H -2.4687874344 1.5863935152 -0.9660799438
H -2.3096096904 2.0625616743 0.7837513464
H -1.17526263 -0.0923847055 1.278315827
H -2.3515055831 -1.467002796 -0.5597298241
H -1.3803776271 -0.6117430194 -1.7587278099
H -0.6055982282 -1.698059231 -0.593993882
