15
0
C 1.7932506697 0.8934136872 1.2331553448
C 1.6359588431 -0.0174609921 0.2886343561
C 0.3624504498 -0.7753162331 0.0265327218
O -0.6696510663 -0.4292625539 0.9350321034
C -1.8100307982 0.057692448 0.2450583664
C -1.4433642792 -0.0103627891 -1.2042664423
C -0.2201897859 -0.4890960163 -1.3328407961
H 2.7389142294 1.4037818813 1.3661518387
H 0.9802061256 1.1458670864 1.9024363261
H 2.4622011978 -0.2749225525 -0.370036083
H 0.5780717233 -1.8496296913 0.1344099419
H -2.0352243887 1.0812234759 0.5688678814
H -2.6777487403 -0.568233731 0.4862409935
H -2.1048668856 0.2983798151 -2.0020103554
H 0.3224657051 -0.6490458348 -2.2543011975
