14
0
C -1.3729367154 0.0718631612 0.656763656
C -0.6312558086 0.3975694813 -0.6140684658
C -0.1812566784 0.9706013297 0.6855015853
O 1.0064320945 0.5011515625 1.2687241122
C 1.6585227252 -0.4993336591 0.6381594042
N 1.3942293681 -1.0716111778 -0.4477143321
C 0.2633999057 -0.6434259024 -1.2484799246
H -1.2409721645 -0.9234090095 1.0651021172
H -2.3487284777 0.5088628597 0.8211832472
H -1.115253525 1.0792553516 -1.3028189169
H -0.3059163501 2.0237369988 0.8946455722
H 0.6683477573 -0.2416312412 -2.1812137838
H 2.5234364013 -0.798277037 1.2239551813
H -0.3080055323 -1.5345577181 -1.5241004526
