16
0
C 1.5443803459 -0.3961701126 0.8927534585
C 0.6672648642 -0.2628961994 -0.3152826798
C 1.1129515784 0.0971662996 -1.5116890124
C -1.2458736548 1.3280327698 1.2145085565
C -1.8512225227 0.2187386632 0.6077386015
N -1.8339786123 -0.1039589206 -0.8607891836
C -0.7632323746 -0.6427324386 -0.1271360208
H 1.2491560565 0.3282118905 1.657285765
H 2.5919111382 -0.2355541435 0.6411601449
H 1.4443911859 -1.3880167808 1.3411193838
H 2.1597802424 0.3224357719 -1.6742567043
H 0.4576313025 0.1660472132 -2.3721546767
H -0.6347090438 1.8466474654 0.4537174379
H -2.5825347028 -0.3781438225 1.1396571303
H -1.5236337293 0.7239108984 -1.362106301
H -0.8984030739 -1.6823325542 0.1636361005
