13
0
C 1.875207275 0.0592226421 -0.9952039198
O 0.6341277467 0.1765651855 -0.2991434796
C -0.9437700986 -1.0210838636 1.7542652887
C -1.4709698344 0.1390754672 1.0861115962
O -1.5778445042 0.0626594548 -0.3331956066
C -0.4570301756 -0.0060446684 -1.0540515473
O -0.4596389463 -0.1844443495 -2.233932868
H 1.9704427255 -0.9352817633 -1.4290734837
H 2.6467319394 0.22550658 -0.2481259052
H 1.9399721785 0.8056041061 -1.7860435861
H -0.9053979208 -0.7373245484 2.8225299027
H -1.0566221189 1.1087146062 1.3882877716
H -2.5159222661 0.1239311511 1.4580768369
