19
0
C 2.0240788578 0.1999419438 -0.6220090001
C 1.0247051775 0.0575670792 0.5216834491
C -0.476044665 0.0283618612 0.144389357
C -0.7851475624 -1.1442983128 -0.7903563229
C -1.3068309216 -0.0677159067 1.41973453
C -0.7979347055 1.3183078133 -0.5894524418
O -1.3603547452 2.2644970883 -0.1114401232
H 1.9218698289 1.1534317118 -1.1437888294
H 1.9210921526 -0.5985870477 -1.358877951
H 3.0426498831 0.1541346233 -0.2338687079
H 1.1761112839 0.8728719019 1.2353847367
H 1.2318860898 -0.8683172553 1.0681029056
H -0.2846267417 -1.0450423861 -1.7556750546
H -0.4561960978 -2.0833574611 -0.3398265462
H -1.8581387355 -1.2210220727 -0.9791857911
H -1.0728786251 -0.9922229169 1.9525430459
H -2.3746386352 -0.0633645153 1.1947633122
H -0.4625950211 1.3507577033 -1.6489936421
H -1.1073138173 0.7739641485 2.0829950735
