19
0
C -2.5891074933 -0.3740789421 -0.2290842645
C -1.480514624 0.1144258941 -0.7622361429
C -0.2384882698 0.4547792773 0.0118982849
C 0.9950505825 -0.2411183303 -0.589348806
C 2.2496516431 -0.0826403632 0.2582000865
C -0.025576737 1.9523050229 -0.0197699003
O 0.1056054824 2.6484593436 0.9472762252
H -0.1552923115 -2.6562923201 1.8040162467
H -2.6742907627 -0.5551731448 0.8372030114
H -3.4519963718 -0.6098302725 -0.8396036043
H -0.6664481234 -2.4917096603 1.2870497636
H -1.4360576596 0.2860472495 -1.8364383049
H -0.357845537 0.1664648613 1.0591118057
H 1.1680413298 0.1514395535 -1.5980536244
H 0.7573334628 -1.3004847696 -0.7144300917
H 3.1006112122 -0.5792024525 -0.2100975158
H 2.1089575016 -0.5206587303 1.2486217945
H 2.5126700593 0.9676357816 0.400598463
H 0.0177806167 2.392871002 -1.0413694264
