19
0
C 2.7842655759 0.3053998987 0.2698823188
C 1.3993889148 -0.221069559 -0.0730369572
C 0.3646800135 0.8910629767 -0.2296034396
C -1.0004509102 0.308983759 -0.6173669399
C -1.7461997788 -0.254591647 0.5007294027
C -2.7818150327 -1.212436764 0.1092950327
O 0.2315396106 1.6537640446 0.9457444831
H 3.4945720866 -0.5099787311 0.416650993
H 2.7510798853 0.8994860233 1.183514028
H 3.1690566616 0.9441019567 -0.5292367154
H 1.0487473253 -0.9005974965 0.7133772197
H 1.4350374508 -0.8038461779 -1.0005141891
H 0.7003247978 1.5809337447 -1.0114548254
H -0.9765372436 -0.2833704357 -1.5446375843
H -1.6887687793 1.1588234099 -0.81524106
H -3.1180020446 -1.1948901427 -0.9365229453
H -3.6216170086 -1.2670184347 0.8019074176
H -2.2244702031 -2.1562489435 0.254090022
H -0.4004913215 1.1664405185 1.4968467388
