10
0
C -1.6919086839 0.0782151016 0.6458857495
O -0.3036806808 -0.2571956569 0.7333989586
C 0.3868339488 -0.1580077553 -0.3981405383
O -0.0464573966 0.1930938638 -1.4630553538
C 1.7854004047 -0.6721933362 -0.2626252908
O 2.5675073506 0.3252010611 0.0123009683
H -2.0955787411 -0.0783100574 1.6422927967
H -1.8145212934 1.1179206575 0.3437192205
H -2.1928131733 -0.5667880668 -0.0755471192
H 3.4781522652 0.0069161886 0.0464836084
