15
0
C -1.0199697568 -0.3434076123 -1.2326096913
C -1.021286386 0.7464554669 -0.1687361702
C -1.6667697231 0.5037731125 1.1720136637
C 0.2161043137 0.0422318263 -0.5346845972
C 1.4780953401 -0.1320137013 -0.3499889935
C 2.760213932 -0.2965564186 -0.1650006561
O 3.3414066013 -1.1525169674 0.7279370708
H -1.1348121307 -0.0526150746 -2.2703454669
H 2.6486299498 -1.6191987992 1.2022177701
H -1.468857725 -1.2969793389 -0.9753640966
H -1.1089186342 1.7604564178 -0.5487103658
H -1.5303227449 -0.5344155872 1.4816198997
H -1.2243464459 1.1416480482 1.9392027794
H -2.7386538668 0.7097636794 1.1334809909
H 3.4996712765 0.2564429485 -0.730697137
