14
0
C 1.7378908827 -0.7813640682 0.2099644684
C 0.8162762644 0.4274857047 0.2965249667
C -0.5024326663 0.2033408005 -0.4218162606
C -1.5934309488 -0.6968857488 0.1310888759
O -2.4724464766 0.353874771 0.1041948881
C -1.5637123606 1.2314534194 -0.3094292742
H 1.2627250406 -1.6615383761 0.647598283
H 2.6711726605 -0.6020171064 0.7460206677
H 1.9889337343 -1.0150850652 -0.8276593349
H 1.3039668278 1.3051953114 -0.1373386741
H -0.3531293387 -0.098634663 -1.4672834818
H 0.605589601 0.6587220305 1.3433911543
H -1.9741979904 -1.6279659393 -0.2836071875
H -1.6095322297 2.2575999296 0.0340299089
