14
0
N 1.6198299722 -1.8980691054 -1.0648454117
C 0.8540151415 -0.9151645044 -0.8768075602
O 1.3450439482 0.3407185685 -0.7610792093
C 0.4935843384 1.4712521825 -0.5941756723
C -0.8022833849 1.1661912885 0.0821700304
C -0.6356679215 -1.1196224405 -0.7677849349
C -1.3262619044 -0.0445305005 0.0114140494
H 2.5873743566 -1.588893414 -1.1287058767
H 0.3167464666 1.9206155817 -1.5793771327
H 1.0780584068 2.1849813233 -0.0121774819
H -1.2917592899 1.9746630108 0.6122200506
H -1.0461123727 -1.1587877811 -1.7838046704
H -0.7931423588 -2.1083328419 -0.3405904838
H -2.2687563982 -0.2781883677 0.4926113032
