13
0
O 0.8064793951 1.9967520749 0.8652697795
C 0.6282531257 0.9128756551 0.3964582399
N 1.5057180318 -0.0202983286 1.2263e-06
C 0.8979245983 -1.224155663 -0.5155136094
C -0.5467428801 -0.8872509323 -0.3817256244
C -1.7672828114 1.0594305078 0.437999403
N -0.7110619333 0.3308361892 0.1363131029
H 2.4915121388 0.1395574933 0.0886159547
H 1.2002860943 -2.0954476358 0.0788376919
H 1.2096376631 -1.4024304187 -1.5522521161
H -1.3820592473 -1.5054765603 -0.6584096725
H -1.5898642832 2.0347523726 0.8551369335
H -2.7486698917 0.6528252459 0.2588606906
