13
0
O -0.9428548347 -1.9787128205 0.591360677
C -0.6889880827 -0.5651918376 0.9942902936
C 0.5547125276 -0.4799367962 0.1270211621
C 0.9134858183 0.8422157049 -0.468838691
C 0.3105144849 1.9897641058 -0.2012999925
C -1.6995124458 -0.7349223697 -0.1233214241
C -0.4242564256 -1.3520554445 -0.6563734779
H -0.8669357582 -0.3278218662 2.0375453126
H 1.4413960297 -1.0019577822 0.5069922426
H 1.7417048493 0.8260922376 -1.1721469102
H 0.6234035544 2.9109522264 -0.6765421554
H -0.5200614014 2.0553847336 0.4929304055
H -0.291740316 -2.0101310914 -1.5079944421
