11
0
O 1.9119941338 0.6069665374 1.6363423603
C 0.0934217689 -0.098192226 -0.1138418805
C -0.9385727474 0.5734310166 -0.9118782066
C -1.2526166872 -0.6810883829 -0.0802375267
C 1.2872220477 0.0801989933 0.6058483031
N 1.4866270584 -0.6376355089 -0.4014446108
H 2.8418414131 0.3479514386 1.5979729586
H -1.3357628363 1.5221112992 -0.5717228389
H -0.90480004 0.4499757376 -1.9876968901
H -1.8582910463 -0.5651309786 0.8102758382
H -1.4165330648 -1.6008999265 -0.6286195067
