11
0
N 1.5638504356 -0.6074072096 -0.2590421769
C 0.2041244051 -0.0788640436 -0.0439549025
C -0.1605921263 1.1093943771 0.4987733243
O -1.4979034565 1.1372052307 0.4845102605
C -1.8999739084 -0.0713390828 -0.0847185912
C -0.8797923959 -0.8938060638 -0.4453262051
H 2.1238800927 -0.052271747 -0.9025284081
H 2.0868227765 -0.7577172951 0.6011423224
H 0.347267355 1.967877821 0.9087686082
H -2.9751526321 -0.1525561888 -0.1441835175
H 1.3439074546 -1.516872798 -0.6904047141
