14
0
C -1.784774992 -0.0725685956 -0.0165023386
C -0.3773809476 0.2650739786 -0.5041207211
C 0.4014706583 1.2083924889 0.3699621462
C 1.5097034795 0.600139179 0.7544383768
N 0.3251187048 -2.0390618258 -1.0882281134
C 0.5314750307 -0.9495649745 -0.5056146262
O 1.6447249799 -0.6807780671 0.2624611825
H -2.4222614396 0.8124434603 -0.042282019
H -1.7585596189 -0.4481625792 1.0078176802
H -2.222585024 -0.8416563479 -0.6528970883
H -0.439955429 0.6414272091 -1.530192231
H 0.1036544445 2.2094253911 0.6386472697
H 2.3247957288 0.9274510159 1.3810158223
H 1.0808974245 -2.698921333 -0.9241903399
