14
0
C -0.853569737 1.3416617871 1.1927239451
C -0.7077771462 -0.9835758941 -1.1214588708
C 0.0078059662 -2.1372533394 -1.1565462854
O 1.2621274624 -2.0671731892 -0.5446830701
C 1.3714134151 -0.815417011 -0.0860506695
C 0.2231623494 -0.1763016287 -0.4239942205
N -0.1515070465 1.2078904977 -0.1090478237
H -1.6922123993 0.6493097387 1.165452855
H -1.196138966 2.3668570572 1.327974154
H -0.16505514 1.0544612584 1.9830319882
H -0.1830416563 -3.1171527393 -1.5688098084
H 2.2846156224 -0.5525472607 0.4249477416
H -0.8084612844 1.4243805504 -0.8652398387
H 0.6393505603 1.8447731729 -0.1680660969
