15
0
N -0.6358236862 -1.0809833096 0.5630962115
C -0.3070153327 -0.0819957307 -0.4103466264
C -0.5080789629 -0.361738976 -1.8699204508
C 0.8833555536 -0.1853175015 -1.3431887974
O 0.8180294402 0.5804438711 2.7324388368
C -0.6188995962 1.2554052632 0.0516365611
N -0.8136479364 2.3149064247 0.4507059412
H -0.5570519077 -2.0085378018 0.1725631248
H -0.0279744134 -0.9915192452 1.3707316791
H 0.5236929451 1.3819230623 2.2871829151
H -0.9306376856 0.4190226802 -2.4866799079
H -0.8437477961 -1.3614684096 -2.1148821355
H 1.4201977583 0.71796919 -1.5999173647
H 1.4978595779 -1.0663333957 -1.2137229173
H 0.3345980425 0.5660448788 3.5601329304
