14
0
C -0.8713639664 1.1630934276 -1.1230501696
C 0.7934421574 -0.5457426659 0.8185879518
C -1.1783008161 -0.2734869268 -0.7293472639
C -0.6427470366 -0.635773902 0.6602008219
C 2.0165933083 -0.4530607339 0.9281755195
C 3.3501803798 -0.2913616953 0.9119917425
H -1.3311908382 1.8699523719 -0.4275480347
H -1.2483564278 1.3859714502 -2.1219408305
H 0.205372577 1.3450090759 -1.1231414913
H -0.7489631521 -0.962264089 -1.4611907486
H -2.2584599424 -0.4442876874 -0.733258841
H -1.0804920798 0.0215338996 1.4229657399
H -0.9530906087 -1.6447246559 0.9536390757
H 3.8172644457 -0.6108528691 1.852594528
