12
0
C -1.388993392 -0.5175704902 -0.3717506897
C 0.0426424765 -0.1564359274 -0.6532257755
C 0.7592097275 0.9918509214 -0.003560352
O 0.328518816 1.1486762932 1.3461798666
C 1.1726342666 -0.3973539011 0.3055639629
O 0.7342323606 -0.2133995751 1.6494899046
H -1.5760663703 -1.5677693104 -0.6019264804
H -1.6265306338 -0.3518228979 0.6780878802
H -2.0654478242 0.090646315 -0.9745270131
H 0.3801088519 -0.2841375938 -1.6785169085
H 1.2101292816 1.8501644243 -0.4820487294
H 2.0578234397 -0.998487258 0.1505913344
