13
0
C 1.7295660107 0.1392551811 0.1901935718
N 0.353498232 0.0722819292 -0.2836865168
C -0.6374588523 1.1237028179 0.0343496523
C -0.7616979943 -0.2031349197 0.6547723528
C -1.6508313393 -1.1860738269 0.1191604252
O -1.3275906843 -2.053052536 -0.6849244173
H 2.3297012874 0.7716047316 -0.4656317678
H 2.1385309326 -0.869510919 0.2168422863
H 1.719053706 0.5431711556 1.200022085
H -0.2303274228 1.9611376597 0.5957815736
H -1.2310390203 1.4215399683 -0.8287432078
H 0.2321109307 -0.3838082553 -1.1859733922
H -2.6808597859 -1.1521319864 0.5223053553
