14
0
C -2.2042382134 0.4908053501 -0.5639632689
C -0.9411720737 0.2708824561 -0.1988121892
C -0.0104374022 -0.7620685083 -0.59912806
C 1.1485842208 -0.5457008588 0.0553294514
N 2.3505500012 -1.1852662469 0.000657766
O 1.1408823371 0.5195212524 0.8806642045
C -0.1635901562 1.1191533658 0.7856917929
H -2.7701884425 1.3221595343 -0.1622354279
H -2.7048621024 -0.154252258 -1.2742175302
H 2.3432759607 -2.1154242774 -0.3766728169
H -0.2026014543 -1.5573442552 -1.3005097698
H 2.9492864229 -1.0512243261 0.7970820175
H -0.6081046077 1.1207612095 1.7820710493
H -0.0365914902 2.1481245625 0.4458537812
