16
0
C 1.918739927 -0.1283785303 0.0129438374
C 0.4441778985 -0.2858513983 0.3450038983
C -0.3725050312 -1.0605303609 -0.7039430276
C -1.7912549918 -0.6517483472 -0.6870878843
C -1.787182709 0.5554562558 0.1685158827
C -0.3490808758 1.019099622 0.4378362086
H 2.444245938 0.4399519334 0.7832236616
H 2.0463630848 0.3991994576 -0.9366545122
H 2.4114439249 -1.0991594985 -0.0756422399
H 0.3527835997 -0.817517026 1.300264074
H -0.1377034403 -0.6585185535 -1.7141855586
H -0.1938319155 -2.1342663483 -0.7829224477
H -2.2021884409 0.0725384367 1.0779067183
H -2.520315683 1.3171083693 -0.0994309456
H -0.0285043915 1.7091281421 -0.3504925295
H -0.2280008938 1.5348108461 1.3916958645
