14
0
C -0.7355967781 1.6294465235 -0.1528628937
C -1.0819783205 0.3747480638 -0.4177477583
C -1.5482550578 -0.6240168645 0.5892744403
O 1.5284241066 -1.8320046656 -0.4217634534
C 2.40052293 -1.0334653473 -0.2294619387
O 2.2278763419 0.2684423059 -0.0331427629
H 1.2737216668 0.4747921768 -0.0811654881
H -0.4193271182 2.3081162177 -0.9363840138
H -0.7802124412 2.0286200213 0.8557187663
H -1.0266545521 0.0231927261 -1.4455638657
H -0.8949398635 -1.4994371592 0.5792991749
H -2.5555246219 -0.9695520995 0.343923662
H -1.5633550007 -0.2020452946 1.5950973879
H 3.4697527087 -1.2838986042 -0.1912512569
