17
0
O 0.4052147246 -1.1601003797 1.0191100413
C 1.3051193506 -0.9286244987 0.2509208516
C 1.924057892 0.4183510147 0.0310398172
C 1.2454227379 1.548508143 0.7809429514
C -1.0563078986 -0.4571991577 -1.3426174361
C -2.1016614442 -1.4800105235 -1.0837035448
C -2.2448926607 -0.119430302 -0.5160454932
H 1.7464773551 -1.7505085083 -0.3482472349
H 2.9834266568 0.3228352972 0.3012874188
H 1.9105680074 0.5862129399 -1.0510503946
H 1.223284071 1.352587708 1.8534154578
H 0.2153624503 1.6627048601 0.4416216843
H 1.7670521048 2.4912719024 0.6132010583
H -2.6768213787 -1.7889092765 -1.9508091661
H -1.8058811787 -2.2960026059 -0.4330169715
H -2.9288218112 0.6012347974 -0.9529762736
H -2.0487849785 0.0360305892 0.5394792341
