16
0
C 2.8976541798 -0.4020444789 0.4167718092
O 1.9158833793 0.367166161 -0.2260619692
C 0.6356869671 0.1411820534 0.2811602848
C -0.4014619437 0.9984103815 -0.2579996764
C -1.7455632574 0.5192052786 0.1308990701
C -2.3197348185 -0.1186785155 -1.1533117868
H 2.7031153975 -1.4783423422 0.312811397
H 3.8517927663 -0.1701184594 -0.0534500371
H 2.9623258032 -0.1642862716 1.4874607597
H 0.379272469 -0.9368913615 0.2533794917
H 0.5741098331 0.4217440856 1.3612632857
H -2.3507540374 0.6043402298 -1.9674347881
H -2.3836414368 1.3658505342 0.3936133944
H -1.7796430114 -0.2219294343 0.9455267467
H -1.7204092094 -0.9711897683 -1.47768506
H -3.3309350806 -0.4743110924 -0.9550889217
