11
0
O 0.7318448985 -1.0095136991 -0.7087541609
C 0.589634928 -0.9072844146 0.7388112021
C -0.544127124 0.1053297939 0.5615199392
O -0.3130758735 1.353899612 1.1422553982
C -0.2032093217 -0.0330267135 -0.9073712321
N -0.5859931307 0.5527876531 -1.9396223672
H -0.0948803106 0.2325419698 -2.7707703521
H 0.3339684383 -1.8715929478 1.1743663879
H 1.4863944286 -0.4854871646 1.1901534122
H -1.5346053887 -0.2904380327 0.8085316666
H -0.7572835442 2.0176659437 0.6078901061
