12
0
O 1.3843703318 -1.141271671 -1.3184957709
C 1.3709672261 -0.1369445281 -0.6650570791
C 0.2218939769 0.8083472922 -0.7120106526
C -0.4654029679 2.0192253196 -0.3291552416
N -0.9235199369 0.855733206 -1.2020057077
C -0.7463736189 -1.7252985229 1.1542506585
O -0.0122669546 -0.9020504664 1.62719088
H 2.1969257273 0.151003548 0.0039290975
H -0.8384566532 -1.8653740767 0.0618435031
H -0.2637752723 2.9527968079 -0.8433621054
H -0.9334980833 2.0984996419 0.6464681403
H -1.3641217752 -2.3783865505 1.7954832782
