11
0
N 1.5983334515 -0.5270456515 0.190784585
C 2.6625196779 -0.6432648229 0.6483421012
C 0.3059836866 -0.3741372554 -0.3523158242
C -0.8873612297 -0.5324781711 0.6026069978
O -1.428820199 0.7217487155 0.1726460164
C -0.2242064279 1.0576767145 -0.5250789415
H 0.2273317266 -0.9792721869 -1.253578978
H -0.5979521511 -0.5204764766 1.6571787614
H -1.5644823513 -1.3647837338 0.4060961376
H 0.3707726559 1.8028004481 0.0102575323
H -0.4149038396 1.38863742 -1.5468603881
