12
0
C -0.8365359508 0.5441779039 0.4073046335
C -0.7567262379 -0.9530203862 0.065269847
N 0.6941132021 -0.89374398 0.3187387806
C 0.6886330846 0.5598855693 0.1840937073
O 1.5180419859 1.24039712 1.069678273
H -1.0843188406 0.7231428715 1.4537730869
H -1.4444732183 1.1839761447 -0.2284403412
H 1.4457656603 0.7918609514 1.9175081528
H -1.0183019243 -1.1528392252 -0.9791323976
H -1.2994113201 -1.6503558184 0.7052174069
H 1.3003139712 -1.4131473453 -0.3009595335
H 0.9618085877 0.9261401942 -0.8118146154
