9
0
N -1.7367901086 -0.3293798609 0.0203284057
C -0.511485467 -0.8828375622 0.1930328025
C 0.5682221258 -0.1739167572 -0.5278488915
N 1.4853210639 0.5052547123 -0.2189452283
N 2.5415387679 1.0862424802 0.0156703524
O -0.2879707158 -1.8674493438 0.8516492829
H -2.525672735 -0.8073151366 0.4187745618
H -1.8901549354 0.3824277856 -0.6692408544
H 2.3922120042 2.0938886827 -0.037426431
