8
0
N 2.8426091002 -0.6006168997 0.354737164
C 1.7124409664 -0.410461023 0.2761172428
C 0.3189275449 -0.1557963107 0.1784023908
C -0.1204733189 1.0930915325 0.0165769105
O -0.62426184 2.1094450967 -0.1237806557
N -1.8143305317 -1.1184198751 0.190682199
N -0.596393333 -1.256112638 0.245756501
H -2.1350405879 -0.1351728828 0.0940202476
