11
0
N 1.1789035211 0.0034827144 0.576675003
C 0.211631045 1.0296575981 0.1353203969
C 0.9437283686 -1.2570253741 0.3333857502
C -0.4030561403 -1.2243751718 -0.3499392436
O -1.4241282646 -0.7114708192 0.5109427855
C -0.8722844468 0.1672693287 -0.444986286
H 1.9903100779 0.2831485296 1.105840876
H -0.1323261765 1.6208399624 0.985878915
H 0.6605076245 1.6921001374 -0.6080613012
H -0.7150920454 -2.0163728046 -1.0183306052
H -1.5404265635 0.5343588991 -1.2147672905
