13
0
C 2.3222418029 -0.2598757525 0.3413792531
O 1.2493272003 0.5516051082 0.7473620739
C 0.0408911185 0.2015678163 0.1389388403
C -1.036368384 1.1307000234 0.641158895
O -2.1797135684 1.0673351504 0.2853951101
C -2.7198391703 -1.4238511985 -1.6066695504
O -3.8155451063 -1.2612428965 -1.7913102239
H 2.1434253171 -1.3130922566 0.5921213072
H 3.2098676645 0.086636792 0.8677309939
H 2.4936641258 -0.1823734434 -0.7397452003
H 0.0907030392 0.2847261087 -0.9568813403
H -0.6912552255 1.887483692 1.3737423553
H -0.2534718138 -0.8326451436 0.3702364859
