16
0
C 2.4186571436 0.0799101732 0.4041995242
N 1.4403586699 -0.7083161912 0.3940657871
C 0.3008427192 -0.3889913662 1.2262043418
C -0.9552645339 -0.1308142364 0.4042677552
C -0.913711949 1.0127394012 -0.6594296465
C -1.2614408625 -0.0642309425 -1.6593535163
C -1.2643033658 -1.0450671207 -0.7621211854
H 3.2855653372 -0.1343301574 -0.2186536004
H 0.4945379228 0.4806339845 1.8738864097
H 2.4487052674 0.9908467411 1.0180051428
H 0.1208211973 -1.2523138521 1.8738909576
H -1.7936370928 -0.0141600389 1.0977786675
H 0.0725640767 1.4646079122 -0.7907218426
H -1.6519517252 1.805407324 -0.5182327086
H -1.4388857477 -0.0323348956 -2.727152484
H -1.4258360573 -2.1142347353 -0.8227486022
