16
0
C 2.0907315005 -0.0459210092 0.0332449188
C 0.6726859163 0.166386861 0.5469941587
C -0.3943029568 -0.2590973061 -0.4519214872
O -0.3629848098 -1.6477084377 -0.7244710146
C -1.8120605704 -0.0182915314 0.0613706928
C -2.2637212731 2.4993149516 0.4187400751
N -2.0720790009 1.3629523614 0.2631308981
H 2.2549757061 0.4856655415 -0.9075633574
H 2.8244049665 0.3202933839 0.751775897
H 2.312185452 -1.1040646209 -0.1299855458
H 0.5225970928 1.2232955301 0.7811787028
H 0.5204792287 -0.3950671727 1.4742450399
H -0.2685762815 0.3131032373 -1.382390689
H 0.4892621001 -1.8724140468 -1.1009865149
H -1.9565658327 -0.5486859972 1.0046440399
H -2.5269632381 -0.4094747447 -0.6627438143
