11
0
C -0.8364920532 -0.3509579138 -0.2627509164
C 0.1196817732 0.7855661151 -0.5599259552
C 1.3446107193 0.481534398 0.317508759
O 2.3474465242 1.1326127842 0.3356127122
C 1.0882800366 -0.7781577534 1.1593263891
N -0.0958595444 -1.1299389474 0.7630253509
H -0.5404460677 -1.9499304361 1.1504062187
H -1.0372688542 -0.990821415 -1.1231322077
H -1.7911014919 -0.025397615 0.1522869293
H -0.2773393288 1.7621770356 -0.283157105
H 0.4270082868 0.8352367478 -1.603763175
