15
0
O -0.3035911536 2.4943556659 0.5741773993
C -0.1596081772 1.3315390092 0.2957073006
C -1.2799936495 0.5001024893 -0.2853171038
C -1.1017559132 -1.0070294906 -0.0809364152
C 0.1957293756 -1.6337127184 -0.3769203876
C 1.3024832832 -0.6665592066 -0.3224983765
C 1.1541080059 0.6131692759 0.5061263247
H -1.2966382367 0.7134045179 -1.3606476892
H -2.2270013435 0.8668814808 0.1117639835
H -1.1243507673 -1.260882411 1.0015368475
H -1.9371353707 -1.5737488782 -0.496324584
H 1.197284144 0.3553381325 1.5706991199
H 1.3157658669 -0.4295450083 -1.4092643979
H 2.2658368327 -1.1509779138 -0.1527110278
H 1.9670181033 1.3189320552 0.3320660066
