16
0
N 0.3150363402 0.831258221 -0.0559658592
C 0.2149529596 -0.4193243478 -0.0751483781
C 1.2337362991 -1.5061929452 0.2023495229
C 0.0560827722 -2.5094417252 0.3128183905
C -0.908220374 -1.4334031003 -0.2498608552
C -0.2235492678 3.9610666392 -0.0800344918
O -1.2970315726 3.4827907621 -0.324098319
H -0.581709825 1.2820719246 -0.2449091169
H 1.8763218957 -1.6893351159 -0.661244415
H 1.8616787329 -1.3578396656 1.0804834507
H -0.1722044458 -2.7712921086 1.3453504162
H 0.1446727625 -3.4246973786 -0.2696198043
H -1.15538615 -1.5861591177 -1.3026123489
H -1.8280579518 -1.2357487194 0.3013246015
H 0.6682123941 3.3280168318 0.0698984109
H -0.0910005696 5.0564088454 0.0045957957
