13
0
C 1.0843431859 -0.8082886231 0.2475743242
C 0.431860241 0.4549273792 -0.2265079721
C 0.859793861 -0.5918825979 -1.2160656393
C -1.8802929532 -0.4166291073 0.7469994806
N -1.568467484 0.6872436262 1.3123679087
C -1.0273515501 0.6600113399 -0.0034747484
H 2.094757815 -0.7478309107 0.6296300994
H 0.4522815357 -1.5326136597 0.747423492
H 1.0382952361 1.3550790159 -0.1962740946
H 1.7136946781 -0.3816489088 -1.8463297785
H 0.075412696 -1.1684461738 -1.6892268258
H -1.6330377225 1.1854558133 2.1857106667
H -1.5430975391 1.2740038069 -0.7373179126
