16
0
C 2.0177091801 0.2864930035 0.0410754783
C 0.5594760925 0.3133750579 0.4806468228
C -0.3257396658 1.2195126226 -0.3406984006
C -1.4937770552 0.6609544594 -0.6243317683
C -1.6096263993 -0.7225715818 -0.0405381535
C -0.1568626689 -1.0466718439 0.3498045191
H 2.0992028489 -0.0237456925 -1.0039366323
H 2.4813948418 1.2710537014 0.1355728011
H 2.5981668267 -0.413229066 0.6467773317
H -0.0313369015 2.2248897268 -0.6205563024
H 0.5250817872 0.6516730679 1.5252923039
H -2.2974670105 1.1414967461 -1.1694121347
H -2.2727046006 -0.7111950273 0.8319952337
H -2.0288658678 -1.4482723178 -0.7412271315
H 0.3153111316 -1.6111127255 -0.4596070217
H -0.0817545395 -1.6515671308 1.2545260541
