15
0
O 0.8724481269 -1.0520218272 -0.8591404387
C 1.4704196911 0.2306442955 -0.5712153732
C 0.3663682265 0.5909467874 0.417130901
C -0.8919175172 1.2041243448 -0.2327591689
C -1.4486819447 -0.2121549001 -0.5464228042
C -0.1898054545 -0.8217305221 0.0698298935
O -0.4062062893 -1.8866824853 0.901508703
H 0.4489046717 -2.236376376 1.1680245357
H 1.536039243 0.8550688768 -1.4660104531
H 2.4671001081 0.1088859023 -0.1387531984
H 0.6496355366 0.9110262183 1.4163070665
H -1.5105016231 1.7625010949 0.4681206491
H -0.695046281 1.8370726637 -1.098681414
H -1.594139311 -0.464382998 -1.5958196272
H -2.345396183 -0.4630810753 0.0188037291
