10
0
O -1.9517446281 -0.9373032542 0.1963718525
C -0.7109414656 -0.4500370388 0.0879586736
C -0.3619525134 0.9658500259 -0.1772173643
N 0.8999919036 1.1000912602 -0.2210888722
C 1.4223417489 -0.2364486315 0.0180800164
N 0.3330416818 -1.1616889299 0.2032087546
H -2.5947198649 -0.2354361649 0.076384742
H -1.0532938765 1.7915090924 -0.320851667
H 2.0643866492 -0.2159380892 0.9032423354
H 2.043966365 -0.5345922698 -0.8309374709
