13
0
C -0.7994835824 -0.6600513013 -0.625153469
C 0.3197070434 -0.4671471979 0.3646101596
C 1.6416346071 -0.5200975676 -0.3774743482
O 1.1918653857 0.4645832723 -1.3349641216
C -0.0288207312 0.6106747281 -0.6208069799
H -2.4358601177 1.568349755 1.7292678233
H -1.793191369 -0.6058481043 -0.1977307164
H -0.6838569316 -1.3454047196 -1.4578349793
H 0.1835922484 -0.5161928612 1.4345280724
H 1.9206591556 -1.4656040914 -0.851300452
H 2.4819811154 -0.1280119087 0.1997657053
H -1.7634544367 1.5711885034 2.0498638008
H -0.4438533873 1.6033174932 -0.5079204951
