13
0
N -1.7575195985 -0.5628233201 0.4726935139
C -0.5967290499 -0.0773435158 -0.1704853075
C -0.3129818679 1.3653336743 -0.5795971924
C 1.0040835522 1.2344183034 -0.3993253069
C 0.853035194 -0.2268247072 0.014343979
O 1.5903386161 -0.98400939 0.8859457745
N 0.1887595531 -0.9174568701 -1.1200058501
H -2.0082181178 0.0246935997 1.2564944508
H -1.6357425461 -1.5105199552 0.8045456035
H -0.9212680159 2.1137680565 -1.0709068624
H 1.8525047941 1.843396403 -0.683137424
H 1.6321857701 -0.5255351396 1.7287935536
H 0.0721177166 -1.8905521388 -0.8297289317
