14
0
N 1.3074425425 -1.6211181437 -1.0243654996
C 0.9049702352 -0.4933178889 -0.6484755234
O 1.6727841201 0.6067117689 -0.4536470031
C 0.8011653952 1.7338946719 -0.2330154375
C -0.6119417004 1.3307724952 -0.2141908789
C -1.6348268074 -0.9573334897 -0.9211390339
C -0.5259348014 -0.1236217199 -0.3141453351
H 2.3108756273 -1.6218369517 -1.189780284
H 0.9169684951 2.4450667853 -1.0617111528
H 1.0934772367 2.2592946167 0.6806525099
H -1.6359578423 -0.8380113706 -2.0045688466
H -1.4788134029 -2.0128936552 -0.7036669003
H -2.6014990668 -0.6370541848 -0.5352164675
H -0.5872490309 -0.2086239334 0.8044098529
