14
0
C 0.631750414 0.7743739707 -0.2022337707
C 0.2475794762 0.8416450398 1.2456417954
C -0.6495932552 1.4433377974 0.2258763834
C -0.3977940736 -1.5544604231 -0.8910274833
C 0.5171812648 -0.7333728832 -0.0203085176
O 0.0345898212 -0.5602077725 1.3386943013
H -1.3817868169 -1.0933519653 -0.9805993007
H 1.4127321243 1.2869594512 -0.7436813788
H 0.6824883392 1.3534275735 2.0936469792
H -0.6278585296 2.5244383405 0.1621266921
H -1.6142380351 0.9879307287 0.0339716522
H -0.5238032525 -2.5524224279 -0.4674038076
H 0.0331246427 -1.6575116826 -1.8893301026
H 1.5126288805 -1.1871437471 0.0246445577
