13
0
N 0.1058916656 -0.2910864233 -0.3979016363
C -0.0717003095 -0.1818704454 0.9046762637
C 0.2090703922 -1.6949611333 1.0336089895
C 0.4016581055 -1.7121668028 -0.5009090472
C -0.536488577 2.9501619298 -0.2872763787
O -0.3214742459 2.4821920982 -1.3757883854
H 0.0423906915 0.4479996196 -1.09251253
H 1.0903837363 -1.9324726041 1.6295332958
H -0.6384683636 -2.2662562731 1.4127413662
H -0.3276408752 -2.2811353691 -1.0810162451
H 1.4074396341 -1.9334793041 -0.8637473456
H -0.5267701415 2.3226198889 0.6213065696
H -0.7501037124 4.0290938187 -0.1708179165
