18
0
C -1.7440915526 0.3501437876 1.1016806406
C -1.4924921201 -0.0550634727 -0.3151818541
C -2.0085564218 -1.1238735095 -0.9024744832
C 1.8223516072 1.2568059231 0.9009916473
C 2.03333297 -0.2067297755 0.6408582508
C 2.1847846801 0.9565687447 -0.2946544461
H -0.8092200346 0.3766442274 1.6681767059
H -2.1747703309 1.3535687125 1.1496735445
H -2.4258628842 -0.3409072896 1.5992625905
H -0.8286105776 0.5902953372 -0.8864677047
H 1.0407141471 -1.182533048 -2.1642472516
H -2.6743188596 -1.7955318394 -0.3699902612
H -1.785630825 -1.3664337168 -1.9343647798
H 1.5560191884 1.9995611616 1.6316890559
H 2.9219207265 -0.6986859979 1.0334307092
H 1.1708288904 -0.8660024926 0.5410033237
H 1.184520115 -1.2813707216 -2.889249525
H 2.4408512818 1.2614679694 -1.2936591626
