14
0
O 2.390050711 -1.6301614894 -0.3968143078
C 1.1852640595 -1.2981332815 0.1418570499
C -0.2846340929 2.1451232711 -0.1205808447
C -1.307701867 1.1645534884 0.1665718476
C -1.0991181955 -0.3312412326 0.006927008
C 0.2299275742 -0.715140006 -0.5645593097
N -0.3883917827 1.9307149012 1.1017756623
H 2.9483332349 -2.0182446026 0.2763643468
H 1.0479958571 -1.5399907238 1.1933363814
H 0.314499523 2.7418308792 -0.7944778387
H -2.3471980595 1.4832936604 0.1983065509
H -1.8995543282 -0.7120701526 -0.6353298225
H -1.2396480923 -0.8050683944 0.9843562969
H 0.4258304585 -0.4856703172 -1.6083330205
