15
0
C -0.4124034517 -2.0084542398 0.432514455
C -0.1983314338 -0.5324153513 0.2242151979
O -1.1988430041 0.1286481693 -0.5520165251
C -1.0993232143 0.4540640274 0.8281636353
O -0.0894137611 2.743206086 -1.3330204174
C 1.1692884792 -0.1422109401 -0.0728479027
C 2.3090208093 0.1344338712 -0.3131450272
H -1.4653472385 -2.2062824481 0.6309695838
H 0.1837013932 -2.3601699707 1.2754673333
H -0.1106213467 -2.56179104 -0.4573309965
H -0.5715299491 1.9098636287 -1.391975053
H -0.7365391286 1.4559048521 1.0343692405
H -1.9195415172 0.0988238146 1.4448461364
H 0.8270610551 2.4727530798 -1.2510790066
H 3.3228443085 0.3814464609 -0.5258886536
