17
0
C 2.5865902392 0.3223391667 0.0383861131
C 1.1636146059 0.0239734559 0.5032665103
C 0.2293713776 1.1609710937 0.2199885194
C -1.0143753567 1.0994001458 -0.2567250399
C -1.8046311454 -0.0953210271 -0.5665763572
C -1.8519462428 -1.1919311449 0.1871089745
O -2.574006159 -2.3078586506 -0.0668947494
H 2.615739379 0.4910966277 -1.0400911538
H 2.9814646401 1.2176885487 0.5244583476
H 3.259662632 -0.5053223567 0.2682760161
H 1.1756928875 -0.1824144707 1.580073601
H 0.7952878599 -0.8861258029 0.023171606
H 0.6381630929 2.1527629889 0.4019371995
H -1.5134809636 2.0434679301 -0.4593839414
H -2.4302939523 -0.0503684167 -1.4567144062
H -1.3128307266 -1.2808083779 1.1223831249
H -3.0363531677 -2.2072237099 -0.9034843646
