12
0
C 1.5323897732 0.0245698318 -0.1244405026
O 1.5117457209 -0.2729455092 1.2527214764
C 0.2778112532 -0.1758311903 0.6161900755
C -0.8431828616 0.7386909721 0.9059553819
O -1.7230434593 -0.2093664201 0.5293777698
C -0.8033049678 -1.1748804671 0.2933458403
H 1.8755504154 -0.7771144291 -0.7715303218
H 1.8290329153 1.0334940356 -0.3879870281
H -0.8983329975 0.9807814115 -1.7509996631
H -1.0866547488 1.387802406 1.7365855633
H -0.9514973085 -1.7752968499 -0.6014921073
H -0.8045557345 0.5040042089 -2.3200454845
