9
0
N 1.4300753685 0.4433869629 0.4177969958
C 0.2282809128 -0.1618628144 0.16409712
N 0.0280288046 -1.4230988324 0.0418864852
O -1.3847280533 -1.5125750894 -0.1121962663
C -1.9848629761 -0.3414481345 -0.0978564209
N -0.9617136978 0.5255639657 0.0776022369
H 1.5950858205 1.3049734177 -0.0761467349
H 2.2101930035 -0.1918894136 0.3652445573
H -1.0858571826 1.5164209379 0.1827320268
