14
0
C 1.5861658127 1.5021760047 -1.5476864707
C -0.3506175301 -1.1459106593 0.8139741682
O -0.3283241962 -1.3491847115 2.2295710889
C -1.4977314864 -0.8294276872 1.5912628661
C -0.8095783842 0.288949974 0.8876948116
O -1.4927372206 0.8045429432 -0.1986695817
H 1.0215410386 1.2626793793 -2.4486911014
H 2.6192892937 1.7095325926 -1.8199643271
H 1.1673201799 2.3880490217 -1.0688520102
H -0.1300906502 -1.8920716544 0.0707744377
H -2.4907478332 -1.232739735 1.6811556381
H 1.5603872994 0.657475645 -0.8596956148
H -0.2185250096 0.992455688 1.4751007555
H -0.864940314 1.2509941989 -0.7711486602
