10
0
C -2.4096084278 0.4723415985 -0.0577423244
O -1.6437548687 -0.0070537006 -0.8455398892
C 0.9443465633 0.0040498853 0.1520333584
O 0.6554514437 0.4862791978 1.1488596751
C 1.4737283556 -0.5668396141 -0.9567629998
C 2.8380672684 -0.703155254 -0.7777769599
H -2.0693706411 0.8587754771 0.920365823
H 0.875553057 -0.849035543 -1.8124788051
H -3.4897010062 0.5499585018 -0.27513459
H 3.1581762557 -0.3199095488 0.2060207117
