11
0
C -1.2429715999 -0.3494856252 -0.081704661
C -0.1657639039 0.6920059008 -0.0663240597
O 0.7252034964 0.5184007744 1.0950358853
C 1.1858099062 0.5164603989 -0.6209544816
C 1.5466777066 -0.8307893219 -0.8898101488
N 1.9198362787 -1.876599248 -1.2074619356
H -1.991215404 -0.1446584285 0.6851032012
H -1.7362520879 -0.3295760119 -1.0552074254
H -0.826441137 -1.3449109033 0.0713383392
H -0.5504633277 1.7100238889 -0.1102643262
H 1.0962370725 1.3727045755 1.3434406127
