14
0
C -1.7942455562 -0.0230208744 -0.1301032013
C -0.7486111033 -0.9827383088 0.354257251
C 0.960251724 1.4081879042 -0.9933481787
C 1.4486925455 0.5141072278 0.0348339728
C 0.6942586138 -0.7350277893 0.4345521412
O 0.1529822642 -1.5418533376 -0.5945949885
H -1.3837841509 0.6789130612 -0.8516618017
H -2.6146964011 -0.5793701571 -0.5881313048
H -2.202985227 0.5346199596 0.7162832212
H -1.1195294388 -1.7274174475 1.0597452728
H 1.801401495 2.0882490604 -1.2216922766
H 1.2786405817 1.3169987719 0.8060275912
H 2.5308488751 0.3316676628 0.0794916158
H 1.232392778 -1.3082787332 1.1904856857
