16
0
C 1.7522912683 0.2767863569 0.4034606548
C 2.368988384 -0.3536074643 -0.8213880873
C -0.3929286094 1.1193196086 0.050646793
O 0.3228327977 0.0886822915 0.3761423007
C -1.8402554427 0.7290096261 0.0389894669
C -2.2438868015 -0.7033713857 0.3645205805
H 3.4550901796 -0.2542816086 -0.7834098016
H 1.9381406504 1.350113868 0.4516099312
H 2.0960375733 -0.202385306 1.3213012287
H 2.1223370118 -1.4146213895 -0.8819727419
H 2.0077047808 0.1414782104 -1.7240700186
H -2.1959460788 1.0358612955 -0.9526251031
H -2.3233005474 1.4493884881 0.7110852784
H -1.9274470141 -0.9867977416 1.369318031
H -3.327329046 -0.8203635968 0.3064477622
H -1.7908341059 -1.4109632525 -0.3314152751
