17
0
C -1.6573186824 -0.7978549648 0.2235891395
C -1.973605634 0.3662530589 -0.6377361371
C -0.6086732558 0.287861779 0.147630806
C 0.6429298131 0.0210773053 -0.6686176631
C 1.7013161661 -0.6313996512 0.1699489423
C 2.8765516333 -0.0920382908 0.4501007252
C -0.7814367838 1.5281055287 0.8054008576
H -1.413189844 -1.7342328191 -0.2645457147
H -2.2127118425 -0.8907768622 1.1476283544
H -1.8228544858 0.3071339404 -1.7074077048
H -2.7443198301 1.0601962369 -0.331050479
H 0.4048341585 -0.6316264839 -1.516513499
H 1.0089009778 0.9708471996 -1.0613685541
H 1.4547549858 -1.6103853415 0.5761995694
H 3.1528390916 0.8873602796 0.0745898359
H 3.6016317421 -0.6066917899 1.0686925263
H -1.6622522098 1.4412208749 1.4668009951
