14
0
O 1.0176241706 -0.2338286496 1.9862949867
C -1.0377474896 0.0293023124 -0.3171104172
C -0.3495665102 1.3506958137 -0.0568139393
O 1.0184029123 0.9909715527 0.0574363227
C 1.0557261667 -0.2985291395 0.5939420624
N -0.1238099932 -1.020290091 0.1417327358
C -0.3725139255 -0.8604934423 -1.2875260709
H 0.4729684267 -0.9669282952 2.2848945763
H -2.0865513255 -0.0831184628 -0.0747309991
H -0.4411226545 2.0705155881 -0.8704674447
H -0.7187225214 1.8002817295 0.8704547817
H 1.9790520017 -0.7685907619 0.2432827195
H 0.4231253294 -0.4373233171 -1.8914943025
H -0.9234745877 -1.6757038372 -1.738090011
