15
0
C -0.3805908922 -1.8226299915 0.6352757084
C -0.0196745373 -0.9172335214 -0.4956327819
O -0.8657077724 -1.06925395 -1.5652200759
C -1.1079349428 1.8474542249 0.7069288895
O -0.4812367522 2.8630784158 0.6001404948
C 0.9761386914 -0.069012354 -0.4831194102
C 1.9541338058 0.7898476415 -0.4721903238
H -1.4077905021 -1.6298784888 0.95451932
H 0.2919442959 -1.6747956943 1.4773647046
H -0.3257476227 -2.8636811783 0.3107603408
H -0.5756515514 -0.4928853927 -2.27707272
H -1.0669584436 1.2290097542 1.6233228708
H -1.7728489275 1.479452171 -0.0964209065
H 1.8012128 1.8076491931 -0.122063149
H 2.9507563511 0.5202841706 -0.8083709615
