12
0
C -1.1821993231 0.1497847772 -1.3518738431
C -0.9922838521 -0.9242168411 -0.3855075428
C -0.8454818535 -1.8108418074 0.4101052007
O 2.4273749084 1.9382606124 1.3647372903
C 1.593695693 1.0197999109 1.0642692579
O 1.7605212663 -0.2605069185 1.0003247985
N 0.7434398836 1.937667243 0.8999176626
H -0.7966884921 1.0945751726 -0.9632768575
H -0.6656640478 -0.0789703719 -2.2843300889
H -2.2444603466 0.2744999504 -1.5634766717
H -0.7519877824 -2.613766852 1.1044876834
H 0.9254239464 -0.6915768755 0.7142731107
