18
0
C 2.6072039444 0.0732459337 0.1024174516
C 1.1160542657 0.1933449925 -0.1860209615
C -2.5947496044 -0.0870149449 -0.6344365805
C -2.425224523 -1.0840226154 0.4604265116
C 0.5128931266 1.4843161335 0.3509879894
O -1.9605171631 -0.4297823201 -1.715232001
H 3.1590550014 0.8997249629 -0.3518938371
H 3.0207166639 -0.8583016433 -0.2888785915
H 2.802104491 0.0998146871 1.1775172972
H 0.5960518567 -0.6654116222 0.2534378495
H 0.9475978675 0.1368590102 -1.2659792263
H -1.9900094867 -0.5671211229 1.3201681646
H -1.8089597397 -1.9642704042 0.2070138873
H -3.4188203901 -1.4083662214 0.780185752
H 0.6250072691 1.5482081265 1.4365974447
H -0.5509497746 1.5673345372 0.1163966523
H 1.0105455022 2.355192413 -0.0823477824
H -1.469624307 -1.2741789024 -1.6296870198
