14
0
C -1.2611001103 -0.9047856383 0.7225213044
C -0.2203727315 -0.1510838967 -0.0925340433
C -0.8277849345 1.0412066056 -0.8219789673
O -1.8851162583 0.9904837673 -1.3796875281
C 1.5217736165 -0.0689001271 1.6371496621
O 2.1872030834 -0.3476609637 2.5505749821
N 0.9013803119 0.3159609074 0.6857678011
H -1.6276426347 -0.2837862633 1.5410510123
H -2.1020107257 -1.1652493603 0.0812427522
H -0.835051375 -1.8185335101 1.1380227665
H 0.1635381946 -0.8055361191 -0.884980107
H -0.2092902342 1.9602888756 -0.8152191715
H 2.2893886879 0.6831905705 -1.8068527191
H 2.1612621098 0.5725211521 -2.5330947444
