19
0
C 2.8071488693 0.2708568539 0.3312463123
C 1.491206056 -0.4779987378 0.4859022616
C 0.2715134095 0.4310613352 0.4385996428
C -1.0317795925 -0.3585233413 0.4767717517
C -1.2694694036 -1.1875627158 -0.7953054333
O -2.6252360412 0.1484242204 -1.0862691293
C -2.2804713005 0.4772868411 0.29180333
H 2.8492553614 0.7908111144 -0.6289689919
H 2.9351377354 1.0194215537 1.11778083
H 3.6612313166 -0.4071564118 0.3779487307
H 1.4889445068 -1.0302118802 1.4326153811
H 1.3895331626 -1.2233545657 -0.30943967
H 0.2992781865 1.0188307033 -0.4880952705
H 0.3038642537 1.1453472441 1.2708785257
H -1.07267363 -0.9533736038 1.3966217653
H -2.0252156024 -1.9520997847 -0.5551626218
H -2.1115062492 0.6919427436 -1.6893715454
H -2.1621803185 1.5572901799 0.418126659
H -3.1259917197 0.1363582515 0.8864404721
