17
0
O 1.1611355033 -0.3141194542 2.5365608756
C 0.4637442321 -1.1675711795 -0.6837868437
C 0.9086962064 0.2380836804 -1.1673307747
C -0.5418373959 0.7532002964 -1.0143076863
C -0.9424371643 -0.6185699544 -0.4271790542
O -1.0970828044 -0.0381060597 0.8879365034
C -0.8699604177 1.2949057212 0.3728952988
H 1.0040875134 -0.6062896011 3.4344226099
H 0.4748742705 -1.9141804024 -1.4790062067
H 0.9690969254 -1.5689526991 0.194023285
H 1.2815523655 0.2574421044 -2.1905083741
H 1.631605067 0.7406054879 -0.5239604333
H -1.0197387824 1.2170127808 -1.8730453758
H 0.2949612812 -0.3274619559 2.0987534434
H -1.8154944396 -1.2073946159 -0.7100660489
H -1.788479884 1.8853302403 0.4271584417
H -0.0658334764 1.8075596106 0.90751734
