12
0
O 2.1968187638 0.0967230405 0.3843982152
C 0.9888116566 -0.5717906062 0.1401166121
C -0.2002572236 0.2836653689 0.5795859141
O -0.1695377532 1.5110915445 -0.0927102937
C -1.4975744342 -0.4367493188 0.3273289695
O -2.3371007395 0.0074666273 -0.4095619412
H 2.1309610889 0.9616873028 -0.0314068664
H 1.0170028048 -1.5064981466 0.7047464081
H 0.8736914282 -0.8132426726 -0.9256464483
H -0.1153570772 0.4532610001 1.6630405609
H -1.6379776091 -1.4039705215 0.8447659073
H -0.9837769055 1.5669723818 -0.6111220374
