14
0
C -1.3778956404 0.5261429997 -1.524782655
C -0.4124966002 -1.3940554441 1.1189274203
O 0.068972764 -0.3548627778 1.6692941583
C 1.0312379427 0.4891528516 1.3240147847
C 1.859105212 0.3166494724 0.1781698002
O 2.7460440634 1.0873800664 -0.1366933858
H -1.6841215559 1.3472966475 -2.17046103
H -2.2483791466 -0.0735936576 -1.2631898024
H -0.652548897 -0.0896029756 -2.0558336886
H -1.213663692 -1.8688921336 1.6636450111
H -0.0362179477 -1.7612869037 0.1744289889
H 1.1619664792 1.2878588137 2.0356582488
H -0.9220163476 0.9391000758 -0.6240215141
H 1.6674893661 -0.5864530348 -0.4391953366
