12
0
C -1.2622375609 0.3757245661 0.5968566935
C 0.1583617488 -0.1532157435 0.5612576145
C 0.3799583133 -1.1951008024 -0.5270679282
O -0.4866076966 -1.5952983239 -1.2491895449
C 1.2068162934 0.930099398 0.3790720863
O 2.3812249351 0.7458143839 0.5316101594
H -1.3879771077 1.101419098 1.4019208772
H -1.5224506793 0.8572297231 -0.347133773
H -1.9718424119 -0.4357106183 0.7509815766
H 1.4204686907 -1.5642365514 -0.6052557028
H 0.4294059418 -0.6623666539 1.4946663367
H 0.8180545335 1.9214835244 0.0665586049
