11
0
O -2.0898327027 0.7007265067 -0.1699355988
C -0.8356152496 0.2635017335 -0.3156443303
N 0.2966212063 0.9492383716 -0.2268672973
C 1.4577269082 0.0570394141 -0.4077665556
O 2.5983961201 0.492062372 -0.3519264826
C 0.8447799828 -1.1764376887 -0.6106586089
N -0.5506307901 -0.9929234089 -0.5469521403
H -2.1575621603 1.6258801003 -0.4188771401
H 0.3953326088 1.919393722 0.0153929382
H 1.2771724603 -2.1459687489 -0.7648038897
H -1.2493663837 -1.6997353736 -0.6853868949
