11
0
O 2.4098123949 -1.3234883566 0.2121885861
C 1.33721029 -0.8240981158 0.1357868876
O 0.2183608358 -1.7036439085 0.2540787045
C -1.0530466947 -1.391776956 0.1924035829
C -1.334967747 0.0643922203 -0.0344227846
C -0.206044629 1.0197544773 -0.1455825846
C 1.0481003324 0.5917087115 -0.0643549802
H -1.9725412489 0.0907333432 -0.9281586077
H -2.0326500311 0.3509477803 0.7626366698
H -0.4180663636 2.0741734102 -0.2961748756
H 1.9114148613 1.238902394 -0.1392285981
