12
0
C -1.0090581841 0.6383349621 -0.71496033
O -1.1168645357 -2.1330366313 -0.2937684029
C -0.1745709185 -1.4895987781 0.1085323844
N -0.0135189158 -0.1525291913 -0.0305403983
C 1.1510297351 0.5264906477 0.4775393205
H -1.4012435846 1.4169734081 -0.0549022407
H -0.5800585095 1.1157893736 -1.6005585437
H -1.8205302743 -0.0184436517 -1.0190483771
H 0.6711776763 -1.9556142207 0.6461325921
H 1.8099789772 -0.1898667121 0.9679515636
H 1.7071378376 1.0108325807 -0.3307469812
H 0.8713576962 1.2917812131 1.2076274134
