14
0
C -2.3382849114 0.9164621148 0.3137326463
C -0.4539517883 -1.7995371536 -0.3523331071
C 0.6900005403 -1.0682130662 0.017282738
C 1.4473855513 -0.1250760033 -0.6806395657
N 2.3964786166 0.2496836391 0.1534078895
N 2.2823839543 -0.4101865823 1.3556527885
N 1.2864993394 -1.1771660221 1.2740351075
H -3.2457904322 1.3600998208 0.720438378
H -1.4702082597 1.3421591125 0.8156587279
H -2.2834137091 1.1244801458 -0.7547384166
H -2.3555228262 -0.161415454 0.4788709524
H -0.6925452822 -1.5076805262 -1.3917212062
H 1.3413215368 0.2660535797 -1.679576303
H 3.1419606706 0.913702395 0.0270153703
