14
0
C 1.1691579582 -0.7800689524 -0.47018481
C 0.9129136531 0.1790130743 0.6393573597
C 0.5363659884 0.5363125595 -0.7754025617
C -0.975601886 0.5347559285 -0.5019287729
C -1.574842921 -0.7436734433 0.9376404736
C -0.559014708 0.2228135266 1.0727955144
H 0.6030418599 -1.7005818605 -0.5569219652
H 2.2066190357 -0.8671563327 -0.765535757
H 1.7054371672 0.6066067555 1.2358847717
H 1.0000139102 1.2604649377 -1.4310937892
H -1.4662580773 1.5012911255 -0.5185035001
H -1.5690338923 -0.1725638433 -1.0832928221
H -1.1546556926 -1.6631562582 0.4955217394
H -0.7912123954 1.1100237827 1.6596441194
