15
0
C -2.0647676143 -0.7734190704 0.764593991
C -1.8383899638 -0.2792026489 -0.4093340925
O 0.5294883316 1.3437060592 -1.4518994227
C 1.4521501974 0.6304852207 -1.1801189129
C 1.4917289842 -0.3688411776 -0.0470889696
O 0.3689562051 -0.4026111073 0.7677134629
C -0.7462697195 -1.0631191237 0.1952193389
H -0.1081478919 2.0714379539 1.5624172467
H -2.7040833442 -0.8712712541 1.6245121223
H -2.1374397165 0.3364191399 -1.2383640355
H -0.1146811373 2.7326675501 1.9086211389
H 2.392730999 0.6586373889 -1.7744410781
H 1.7154506607 -1.3521728923 -0.4952886752
H 2.3571764956 -0.1148918009 0.575555217
H -0.4658174863 -2.0557282375 -0.1650033314
