18
0
C -1.5393014697 -2.3137460838 0.5248603843
C -1.138661178 -0.8370087698 0.5671588548
C 0.233395363 -0.5777338713 0.060654137
C 0.1284362452 2.5219822461 -1.2043577002
O 1.103637822 -0.0852166663 0.8658515877
C 2.3408578046 0.2749355303 0.6542090657
H -1.4702968758 -2.7099375219 -0.4906487159
H -0.8863353415 -2.913263024 1.1613432647
H -2.5681471533 -2.4492697205 0.8645254803
H -1.1960432405 -0.4590050646 1.5905070907
H -1.8615040349 -0.2560280757 -0.0193730385
H 0.5423643305 -0.7703956466 -0.9628232596
H 0.0185728447 1.9429669903 -2.1205429473
H 0.3258905641 3.5629232739 -1.4573710201
H -0.7910495525 2.4591108308 -0.6240618345
H 2.7866842322 0.0896349223 -0.3131996886
H 0.9621639131 2.1332033984 -0.6162607875
H 2.8674267268 0.6150562525 1.5273251269
