16
0
O 1.8309389796 -0.6583916799 0.9420133871
C 0.7581682803 0.2228931653 0.8014924086
C 0.3205824612 0.4090898924 -0.6063266899
C -0.5491277391 -0.3699794824 0.3785807493
C -1.6164555135 0.7157259493 0.3176793494
C -0.7311712864 1.507672082 -0.6879796502
H 1.6989003695 -1.1737883155 1.7400544937
H 1.686357644 -2.648149453 -0.774313905
H 0.7753994903 1.0762539791 1.4818688995
H 0.9352441396 0.0330540683 -1.412703644
H -0.7115271429 -1.4384394904 0.4379304981
H 1.6362894673 -3.2840498235 -1.1622785662
H -2.5471334216 0.373835903 -0.1328648942
H -1.847311996 1.20972308 1.2648836833
H -0.4037694296 2.5031284684 -0.3785840397
H -1.1935953026 1.5809026569 -1.6710990798
