14
0
O -1.0802202419 1.7218637606 -0.3988151394
C -0.7821046805 0.5739687671 0.196658195
C -1.2092259551 -0.6528686618 -0.4572299854
C 0.1665873067 -1.2910413813 -0.6703945495
C 1.2705244339 -0.2708033759 -0.236923433
C 0.5689315729 0.4680591731 0.8850994811
H -0.5020766068 2.4254694895 -0.0862576176
H 0.4773614692 -0.169745457 1.7708498024
H -1.8187451021 -0.4086493967 -1.3274518648
H -1.7758042565 -1.3102583732 0.2042824528
H 0.2584502382 -2.1770675817 -0.0291934191
H 1.5497841423 0.4068126644 -1.052131845
H 2.1727147109 -0.7862201043 0.0887194819
H 0.9559349687 1.4457144773 1.1897184408
