15
0
N 2.2154968363 0.9320940887 -0.1324550101
C 0.8188922432 0.7765189306 -0.3891270635
O 0.1423643681 1.5500240032 0.5422213124
N 0.3876775056 -0.6227079888 -0.2463613146
C -0.0314145802 -1.1947946213 -1.2856095705
C -2.053913069 -0.3927415861 1.9480506095
O -2.4242168253 0.4536509437 1.1790126329
H 2.4281194713 0.5957238079 0.7986483338
H 2.7664215295 0.4135283721 -0.8019751391
H 0.6182562059 1.1164417303 -1.4205491184
H -0.348695656 -2.2352241394 -1.2392916292
H -0.0952851867 -0.6925606413 -2.2595039505
H -0.9834806233 -0.6184153428 2.0847146974
H -2.7791000026 -0.9796938848 2.5388274734
H -0.792993217 1.295495328 0.5537657366
