13
0
C -1.8271980033 -0.6777064403 -0.0223155022
C 0.5115274189 0.2073587642 0.8196201839
O -0.9740894082 0.4596530505 -0.1933549037
C 1.4376754846 -0.4452058621 -0.1806315116
C 1.5204908776 1.0260751574 0.0458211449
H -1.8495705043 -0.9668427146 1.0287125666
H -1.3940570961 -1.4825338054 -0.6103476507
H -2.8242536031 -0.4416813395 -0.3951646146
H -1.3201376985 1.18512155 0.336098021
H 2.1729326841 -1.1171980719 0.246434854
H 1.0586281332 -0.7662408972 -1.1433502128
H 2.3150059642 1.451399374 0.6478976856
H 1.1972797508 1.662864235 -0.7683300602
