11
0
O -2.8494497443 -0.6421960237 -1.4227782311
C -1.8431860323 -0.4119970489 -0.9008919115
C -0.7359373613 -0.1178947922 -0.2512680921
C -0.1641469866 1.2156654392 -0.0532453201
N 1.0383635286 1.1717875281 0.3479567638
C 1.4354023835 -0.2322689138 0.4004025245
N 0.2279583022 -1.0649910898 0.2247492975
H 1.9301501775 -0.4660079292 1.3436877247
H -0.6885955721 2.1475778959 -0.232891422
H 2.148578505 -0.4087161631 -0.4114515103
H -0.0711191999 -1.4300539024 1.1196391766
