15
0
O 2.4571720451 0.831736187 0.7913637348
C 1.6399716965 0.2128747638 -0.1724943104
C 0.4440793365 -0.4405463293 0.4841448872
O -0.3545141661 0.5233693453 1.1901239946
C -1.5040165879 0.2650494258 0.388308543
C -1.6239103097 0.8681774174 -0.8735333504
C -0.6933566726 -0.8621143016 -0.4528236552
H 1.9225270712 1.4997198827 1.2296600365
H 1.2904257962 0.9292670942 -0.9247497498
H 2.2469466121 -0.5493915512 -0.6681050947
H 0.7648657204 -1.2323487655 1.167053512
H -2.3365484598 -0.1119395593 0.9849437018
H -0.5018162234 -0.6925400626 -1.516051338
H -2.5461010037 0.4521073568 -1.3127165269
H -1.1566568547 -1.8320049037 -0.2993703843
