13
0
C -2.1241314622 0.1616717542 -0.2151379289
O -1.2762531785 -0.7750640351 0.4224363054
C 0.0718896565 -0.6109379172 0.4211456574
C 0.6300434949 0.4690601217 -0.3963771732
N 1.8886355308 0.700287355 -0.3257699009
C 3.0341284853 0.9368919195 -0.0801746488
N 0.8222893008 -1.3745979196 1.0946277553
H -1.9621124838 1.1746985266 0.1617590804
H -3.1397224726 -0.1453949277 0.0246786921
H -2.0005874969 0.1452832344 -1.3015623427
H 0.0451736914 1.0770188015 -1.0683477442
H 3.8732447495 0.4842948376 -0.599389831
H 0.2655471847 -2.0454937508 1.6164190791
