10
0
N -1.2226646943 0.9289125741 -0.5286530864
C -0.5272509679 0.5360015688 -1.6123205379
O -0.2394045401 0.7992916823 -2.7332671319
C 1.0710206185 -0.742741934 1.4253623293
O 2.0583770321 -0.6193606597 2.0669685468
C -0.3494571632 -0.2447396192 -0.3720760409
O 0.8730465495 -0.0650411979 0.2700973475
H -1.215426731 1.8052398624 -0.0257685612
H 0.2308519481 -1.4101369788 1.6846876834
H -0.8511870516 -1.1779062979 -0.1297905488
