13
0
O -0.1007361824 1.626596957 1.0217473297
C 2.6622626557 -0.4893908376 0.4073515416
C 1.4478004981 -0.0290843489 0.4579583747
C 0.2112337195 0.384061329 0.545042689
C -0.9458004669 -0.5140891783 0.1982068127
C -1.9700386454 0.1070744232 -0.7126135133
O -2.0524387105 1.285162977 -0.9475274289
H -0.8075111111 1.9737784818 0.4592557807
H 3.1232081406 -0.9622146318 1.2689567396
H 3.2613836083 -0.4069690868 -0.4937815279
H -1.4924261529 -0.795851169 1.1097904971
H -0.5938710179 -1.4463586383 -0.2472050626
H -2.699085335 -0.5982602771 -1.1571172322
