17
0
C -1.439418853 0.0394014423 0.465413477
C -0.5379223309 -0.7577483461 -0.4765941027
C -0.7967070814 -0.3668917296 -1.961283716
C 0.9329830873 -0.6120549611 -0.4572502976
C 1.4157728275 0.7244839504 0.0327059461
C 1.6353894879 0.4147179328 1.4471552249
C 1.7886165429 0.0918462919 2.590056966
H -2.4852528028 -0.215725138 0.2813334765
H -1.2143684383 -0.1875016681 1.5081064204
H -1.3406052637 1.1179677642 0.3267896622
H -0.7824234378 -1.8209579504 -0.399712033
H -1.852766933 -0.5394081587 -2.1711218477
H -0.5865919022 0.6902649542 -2.1381786723
H -0.2002495232 -0.9631640183 -2.6506117588
H 0.7201529969 1.568953619 -0.0501472778
H 2.3707799232 0.9943256796 -0.4211238908
H 1.9411707006 -0.1757646644 3.6089324234
