18
0
C -0.9548534369 -1.6392778948 0.1387965151
C -0.646028527 -0.4313126181 -0.7322943876
C -1.3079071942 0.8783473722 -0.2563436446
N 0.6612662941 0.2196926303 -0.5222119878
C 1.8122553394 -0.5044593756 -0.0536913655
C 0.0647188728 1.2629654709 0.2917515242
O 0.4487705836 2.5800154513 0.0140280145
H -0.8432463807 -1.4144216204 1.2025850266
H -1.9852375178 -1.9597384989 -0.0288905709
H -0.3024563198 -2.4824396606 -0.0990365251
H -0.8150944466 -0.6882258526 -1.7826355753
H 1.2581583957 2.7814830601 0.486241151
H -1.5942580852 1.5392447371 -1.0722496017
H -2.1220038614 0.7888653462 0.4608155386
H 1.6717251749 -0.9848454519 0.9280752608
H 2.084890199 -1.2780429649 -0.77426711
H 2.6621690963 0.1775913742 0.0231846878
H 0.1764288137 1.0702344953 1.3730410501
