12
0
O 2.5898027133 -0.9668184563 0.0211183694
C 1.8334114912 -0.1053501489 0.4486757272
C 0.7183063771 0.3744348069 -0.2716489316
C -0.3424988171 -0.5198182005 -0.8782622796
C -1.3574038169 0.0045103773 0.1215407724
O -0.4102360777 0.9379874739 0.7911674872
H 2.034520784 0.4182426323 1.4099510299
H -0.5880017495 1.8503121665 0.5412024059
H -0.1286251365 -1.5864739709 -0.780657652
H -0.5925073768 -0.2995861241 -1.9170174484
H -1.6805718963 -0.6969459236 0.88610703
H -2.2069754952 0.5599323673 -0.2718925101
