15
0
C -1.2666383058 -1.081135219 0.543582747
N -0.3207879012 -0.4985273079 -0.4353383349
C 1.0491194718 -1.0111345838 -0.3185602991
C 1.8309352861 0.0419066719 0.0038302003
C 1.1130356179 1.2600153594 0.0739853086
C -0.2260076804 1.0255676621 -0.2442288277
N -1.3432568596 1.617680703 -0.4370004058
H -2.2069745593 -0.5380393896 0.4635532281
H -1.398515572 -2.1415445484 0.333568028
H -0.8349963593 -0.9476387458 1.5332133853
H 1.2250713168 -2.0689461403 -0.3993625402
H 2.8933422988 -0.050162519 0.1864187127
H 1.5226250686 2.2322416475 0.2892294186
H -1.2496708544 2.6176074053 -0.3072581792
H -0.6986319683 -0.6263429955 -1.3712204414
