15
0
C 1.7087173192 0.1501585776 -1.6133148949
C 0.9163478949 -0.1624889737 -0.375915551
O 1.2842406423 -0.9765465992 0.4435307738
C -0.3345956527 0.5753052916 -0.1926071562
O -0.7629924433 -1.8533730534 2.3311859097
C -1.2738967215 1.302476479 -0.7001780325
C -1.4710070635 0.887059432 0.7295886932
H 2.5144349907 -0.5706582813 -1.731991469
H 1.0620144039 0.1460844286 -2.4921423034
H 2.1286580973 1.154887654 -1.5239661825
H -0.0306515295 -1.5301957467 1.7876029509
H -1.7004081828 1.8083555203 -1.5492758341
H -0.4649156736 -2.6944683695 2.6778647971
H -1.3157083441 1.6193591579 1.5179695087
H -2.1914607373 0.1111814827 0.9719357902
