14
0
C -2.0301044811 -0.0084718074 -0.1574900573
C -0.4526893627 -0.8893751607 1.3609786674
O -1.3542200934 0.0582191775 1.090413904
C 1.491586971 1.1638677175 -0.5032197724
C 2.0600025802 0.0029535194 -0.7850778496
O 0.227736505 -0.8703795758 2.337561128
H -1.9402609694 -1.0007039569 -0.6067369952
H -1.6079280801 0.7321319402 -0.8374196804
H -3.0806312635 0.2107505249 0.023505964
H -0.4129239033 -1.6860504733 0.5964819019
H 1.2711933973 1.8913945483 -1.2766497469
H 1.2323492961 1.4344401296 0.5143218258
H 2.2908855575 -0.7158455631 -0.0065326391
H 2.3256778463 -0.2699630202 -1.8002986501
