11
0
O -1.9736768706 0.6713045937 0.6322347086
C -0.8072225161 0.9880555981 0.1648143693
C 0.1841387409 0.076113455 -0.0944339826
C -0.0724477645 -1.3157389381 0.16400657
O -1.1378313791 -1.7358947942 0.6066023034
C 1.471981974 0.5249957505 -0.6228759226
O 1.7582345684 1.6721874823 -0.862882556
H -0.6517005782 2.0483346864 -0.0165255363
H 0.7404763294 -2.0300254277 -0.0521218602
H -1.9745753428 -0.323072513 0.748725778
H 2.2088738385 -0.2858158929 -0.8009428715
