17
0
C -1.4251547035 -0.3424208535 -0.7993406789
C -0.4253333214 0.3190253898 0.1146532191
C 0.9609728877 -2.3035532351 2.3161606657
O 0.7003981084 -2.5100831889 1.0618762322
C 1.0572627233 0.3311391595 -0.2406630579
C 0.260951701 1.5863072092 -0.2992947386
O 0.0450887583 2.1072101785 -1.572249007
H -2.4168074812 0.0966424 -0.6690743508
H -1.5134168052 -1.4110992742 -0.5925280803
H -1.1386947041 -0.2208874313 -1.843971385
H -0.6566753931 0.2565099065 1.1738053948
H 1.0558024305 -1.1897209254 2.449122084
H 0.6391025636 -1.6957779562 0.5243050458
H 1.805708713 0.2375598493 0.5372851954
H 1.3334326715 -0.0854101601 -1.2021727129
H 0.4468250802 2.3290300739 0.4715790571
H -0.795181229 2.5706248577 -1.5767498822
