12
0
O 1.2003193607 -0.6058657848 -1.2186546991
C 0.0967383639 -0.6441034021 -0.3387416785
C 0.4544453017 -0.2119053971 1.0871543566
C 0.1037060811 1.2527022742 1.1978123827
O -0.6752138808 1.518409431 0.1966564273
C -0.9724193295 0.3744260656 -0.6807870638
H 1.6626168075 0.2296176453 -1.1160833493
H -0.2886009783 -1.6610413242 -0.3944630844
H -0.1709566869 -0.7099537302 1.8389159347
H 1.490041922 -0.4161151944 1.3600740688
H -1.9815659533 0.0424307504 -0.4346586529
H -0.9325290081 0.7248046664 -1.7100206422
