15
0
C -2.7355927099 -0.5867209134 0.7130633827
C -0.81524494 0.0756864545 -0.7162720472
C 0.16913417 0.8934401525 -0.9630697798
N 1.498727213 0.7571087664 -0.5091860488
C 1.8881332717 -0.1272767326 0.4163930123
N 3.199497473 -0.0785916667 0.6462206262
C -1.830739006 -0.7001768549 -0.479589157
H -3.771601491 -0.4326840055 0.4008170686
H -2.7059310763 -1.5071460023 1.3010037204
H -2.4372352449 0.2412426678 1.3545269567
H -0.0004658504 1.7793952633 -1.5657080738
H 2.1586527922 1.3892260026 -0.9547700229
H 3.5920571309 -0.693523872 1.3325299473
H 3.8498105887 0.5436023106 0.1749774783
H -2.036624321 -1.5072315702 -1.1802150631
