12
0
C 1.0580261531 -0.4882009021 -0.2422857264
C 0.3121981774 0.8057504231 0.208061409
C -1.0423254065 -0.0044012973 -0.1111610717
O -0.9639058851 -0.3146934595 -1.4768482903
C -0.2690718572 -1.1544381724 -0.5487882771
C 0.0701769333 0.9678371245 1.6155001688
H 1.5762483395 -0.9419916253 0.6004407067
H 1.723454832 -0.3761600332 -1.09783947
H 0.406746823 1.6780469373 -0.4437590171
H -2.0176210521 0.1018281097 0.3414012594
H -0.5345403713 -2.2025298319 -0.5442354058
H -0.3722726863 1.973716727 1.7480307145
