7
0
C -0.6630709838 -0.2146590662 -0.2280089326
C 1.3272345313 0.5101614936 0.9044549841
O 0.0863699228 0.172763212 0.9402338731
H -1.0383634512 -1.2229960826 -0.0619267851
H -1.4967083114 0.4775508773 -0.3326538084
H -0.0158949103 -0.1799754924 -1.1069874774
H 1.6575892025 0.4360790584 -0.1701098538
