20
0
C 2.7423984673 0.702638986 0.152494659
C 1.890975241 -0.3695675357 -0.5133852323
C 0.4057975486 -0.237365395 -0.1740565532
C -0.4311706098 -1.3084093608 -0.8009891891
C -2.5959003277 1.0149959305 1.6359903423
C -1.4307060881 -1.1006773635 -1.6445974803
H 2.4322794969 1.7025098111 -0.1609482825
H 3.7979529206 0.5875739559 -0.0999453238
H 2.6534883761 0.6561474024 1.2408496987
H 2.01300412 -0.322150189 -1.5996947419
H 2.2425685837 -1.3610800786 -0.2096864524
H 0.0394192482 0.7448245462 -0.4883797949
H 0.2876587982 -0.280269513 0.9154788033
H -0.1717946958 -2.3321370132 -0.5360265454
H -3.6495641099 1.1950645273 1.8443405076
H -2.0753862174 0.7937314426 2.5668811121
H -2.1596463507 1.9035439686 1.1813627515
H -1.7230614004 -0.0972272172 -1.9378779161
H -1.9939926509 -1.921743649 -2.0712173932
H -2.4963003495 0.1720407444 0.9533790305
