14
0
C -2.2867442484 0.4443398907 -0.3223668996
C -1.0111842783 0.1144532849 -0.1195805985
C -0.5417569737 -1.1651593949 0.5403215984
O 0.8955226145 -1.1041895647 0.5427741952
C 1.2447212773 0.0599892552 -0.0398930192
N 2.5918385731 0.2294135737 -0.1546239165
C 0.2085370291 0.8229527578 -0.4432543956
H -0.8774017755 -1.2531301031 1.5749124747
H -2.557588017 1.3757587908 -0.802211035
H -3.0936839535 -0.210033329 -0.0163481896
H -0.8405079844 -2.0576740269 -0.01171803
H 3.1518120999 -0.3033621991 0.4882300019
H 2.9106585709 1.1656730396 -0.3256886192
H 0.2793630661 1.7815910249 -0.9303875673
