15
0
O -0.4291017058 2.4749892435 -0.1158012302
C -0.3978801797 1.1304112231 0.0267498905
C -1.3531754086 0.2283136285 -0.2006471792
C -0.8748284001 -1.1618532958 0.1379843189
C 0.5948438514 -0.9616630583 0.489936956
C 1.5055287567 -0.3977905164 -0.5546604494
C 0.8805580952 0.5191439753 0.4631828796
H -2.3374454351 0.4443820622 -0.5977526747
H -1.3159553793 2.7461676824 -0.3646389057
H -1.4214136384 -1.5788819666 0.9898749095
H -1.0011399834 -1.8642061494 -0.6920355995
H 1.0358025667 -1.5858818328 1.2553214823
H 1.1522484751 -0.3267635464 -1.5763611509
H 2.5621080655 -0.607403627 -0.4470510962
H 1.4942813197 1.0276141778 1.194600849
