15
0
C 1.5090822073 0.3220948645 1.0276849108
C 1.2869361357 0.2699768641 -0.455608226
O -3.1504547518 -1.4658527059 0.5284656629
C -2.0540566676 -1.7364554553 0.2456952429
N -0.9475224315 -2.1339304318 -0.0176043106
C 0.1946048012 0.7345390029 -1.0721831665
N -0.8858085904 1.3387069992 -0.4669766285
H 0.5989026376 0.0916850876 1.5914687587
H 1.8504151986 1.3091930746 1.3551385288
H 2.2629984168 -0.4017392984 1.3364765756
H 2.0856789753 -0.1064566184 -1.0819948354
H -0.1907503009 -1.5416193278 -0.3491605753
H 0.1221125553 0.6816114208 -2.1531768588
H -1.7653014816 1.3188731349 -0.9498969538
H -0.9605877041 1.2905863889 0.5343088751
