16
0
C 1.5588880775 -0.7102539344 0.5104675159
C 0.4838490743 0.3024076271 0.2279762373
C 0.8833678667 1.4901141841 -0.6050167789
N -2.1297833766 0.2016032021 -0.3494504399
C -1.8613043552 -1.1586813195 0.2070322402
C -0.909571934 -0.0676704599 0.3129730501
O -0.3554951944 0.6295922052 1.3729646457
H 2.3952930347 -0.2374657457 1.0301182407
H 1.9384435542 -1.1347046465 -0.4216196245
H 1.1742829678 -1.5170329809 1.1329540599
H 1.2185646955 1.1658084517 -1.593111721
H 1.7083716314 2.0243166993 -0.1292217024
H 0.0470959372 2.1777972955 -0.7241276539
H -2.0201086756 0.2253298186 -1.3565615848
H -2.4842289465 -1.4153829949 1.0551489433
H -1.6502933569 -1.969797402 -0.4819124273
