12
0
C -1.5356802329 -0.652529271 0.1908228408
C 1.2954008197 0.2366068805 -0.0687828833
C 0.6387526491 1.5123421048 -0.3568794997
O 1.2690685694 2.5110771816 -0.6131843652
C 0.8231726448 -0.9858241542 0.2344270039
O -0.4026274176 -1.4787299198 0.3752592649
H -2.4024399112 -1.2900679338 0.3469383454
H -1.5452764087 0.1620863983 0.9190022504
H -1.5583985615 -0.2457469354 -0.823091842
H 2.3768629744 0.3014958704 -0.1076478402
H -0.4627613823 1.5605825678 -0.3370285941
H 1.5424832571 -1.7786357889 0.412254319
