14
0
C 1.7900772473 0.0412219076 -0.1668462839
C 0.517057363 0.8374110528 -0.2266469614
O 0.499066012 2.0026819022 -0.5453514639
C -1.0260946484 -1.0978511244 -0.7369717843
C -0.7913086363 0.1397216651 0.1222517899
O -1.8581207653 1.0320742553 -0.0077221018
H 1.7836782666 -0.6633305584 0.6657941751
H 1.8860863303 -0.5378865474 -1.0886917113
H 2.6412699018 0.7138704741 -0.0882938521
H -1.0352300445 -0.8295630476 -1.7951011634
H -0.2643531578 -1.8605992319 -0.5668691322
H -0.6965986484 -0.1738124562 1.1744507303
H -1.9977676451 -1.5215822478 -0.4857863477
H -1.4672295752 1.8823099565 -0.2550988931
