12
0
C -1.8129694057 -0.1682117832 0.3837306307
C -0.5772780696 0.2068447487 -0.3194988226
C 0.1659244535 0.9977617007 -0.993521434
O 1.7479629964 0.4679348517 1.4934121906
C 1.7997817555 -0.2810090523 0.5520145229
C 0.8278238272 -0.2917238685 -0.5738124868
H -2.5774761914 0.5987931097 0.264897002
H -1.6030483715 -0.2990262953 1.4468828006
H -2.1968924368 -1.1161218941 0.0020458326
H 0.3571464834 1.9260097879 -1.4994798637
H 2.6096739121 -1.0387524339 0.4836055822
H 1.0025430471 -1.0756278713 -1.3115239544
