10
0
O 2.0445692664 0.2111703914 -0.3843253022
C 0.7227199283 -0.084738052 -0.3072735565
N 0.4979860887 -1.4925742611 -0.2971382683
N -0.6728155896 -1.8670428884 -0.2302092247
C -1.1991714818 1.6659563478 -0.1915188979
C -0.2207713872 0.8191237621 -0.2496444974
H 2.5125046422 -0.6301412948 -0.414938232
H -0.6498821117 -2.8926982657 -0.2333248331
H -1.5720107275 2.0343283096 0.7592452762
H -1.6763846277 2.0385599512 -1.0926454641
