11
0
C -1.3725122295 -0.0337070168 0.3325258773
C -0.3317111461 1.0319424869 0.4989403534
O -0.5517480923 2.1799266024 0.7055955899
N 0.9103513221 -0.7480669647 -1.326891302
C 1.4958315964 -0.3289504236 -0.2996801938
O 1.0015491681 0.6266624326 0.5125553356
H -1.5479207153 -0.1961055691 -0.7297255373
H -2.2858209749 0.317404843 0.8067754012
H -1.0512901432 -0.9813002495 0.761798289
H 1.4732702742 -1.4469316101 -1.7979541617
H 2.4789829406 -0.6316245311 0.0626123484
