17
0
C 3.0015478914 -0.6691211936 1.5669269433
O 3.248912531 -1.510583102 0.7516911827
C 0.132948629 -0.6202370159 -0.5416540241
C -0.7964113909 -0.6511039101 0.4045845903
C -1.8572300094 0.3978700766 0.1916678021
C -1.5938443859 0.8631226784 -1.2537918815
C -0.1384618211 0.4583739558 -1.5574941666
H 3.7210777425 -0.40717474 2.3658423278
H 2.0431679192 -0.1166687059 1.5588778546
H 0.5575886727 1.2934337298 -1.4162842809
H 1.0118618664 -1.2541558594 -0.572802617
H -0.7920288343 -1.3209914222 1.2566061342
H -2.8702774414 0.0126121576 0.328125713
H -1.7343581592 1.2140168331 0.9130886667
H -2.2623892123 0.3250913125 -1.9292682637
H -1.7773466498 1.9283438506 -1.3972212215
H -0.0049193481 0.115625355 -2.5858867594
