13
0
O 2.1901546687 1.0381958385 0.1732794556
C 1.8358789538 0.1137276654 -0.4955675576
N 0.4935595911 -0.1911133915 -0.7652937216
C -0.5943981699 0.7581939577 -0.4058036673
C -1.4418930732 -0.220744386 0.3852723172
C -0.3201301757 -1.2837696837 0.4563701308
H 2.5265439196 -0.6267468789 -0.9292369113
H -0.1438246889 1.5341432461 0.2087371151
H -1.0331505457 1.2107218968 -1.2968957532
H -1.7876876616 0.170189435 1.3437224113
H -2.3099003278 -0.5766470922 -0.1743737411
H 0.367124501 -0.719416325 -1.6161725509
H 0.3256960087 -0.998752282 1.3049864732
