11
0
N -1.9692676935 -0.7019467944 -0.98880277
C -0.93418164 0.158569953 -0.8846772233
O -0.8007678353 1.1785235749 -1.5055678562
C 1.95968438 0.0515489041 1.1741350078
C 1.0637520483 0.4512122615 0.2925766937
O -0.0522903145 -0.3090099757 0.0443043019
H -2.0003751465 -1.5386906684 -0.439391813
H -2.6952575901 -0.494441634 -1.6462952326
H 1.8488737032 -0.8753854617 1.7212451929
H 2.8305399972 0.6633559929 1.35813158
H 1.119221091 1.3648518479 -0.2844438812
