16
0
C 1.3426443379 0.9676891607 0.2374727941
C 0.0715439307 0.3873167076 0.7850438381
C 0.132668323 -1.0606560186 1.1751353828
C -1.0395940507 1.1081597552 0.9115150838
N -1.2940919631 -0.2960272214 -2.1964649246
C -0.551090695 -1.1517161319 -2.6058329657
O 0.1015812103 -1.9759090158 -3.1026978325
H 1.6669065556 0.4200508976 -0.6524195965
H 2.1490308221 0.879058833 0.9703174165
H 1.2280631059 2.0184679605 -0.0265510954
H 0.8872963243 -1.2161571029 1.9507590914
H 0.4298637804 -1.6808662753 0.3240500671
H -0.8247255709 -1.4230436206 1.54815979
H -1.9489658307 0.6796101597 1.317864574
H -1.0688602893 2.1562204574 0.6350413556
H -1.2384579905 0.1457494548 -1.286921979
