15
0
N 2.2292672986 -0.9933451163 -1.0373386931
C 1.6338757781 -0.1367409886 -0.3557973099
O 1.3990698917 1.1766137253 -0.3029216028
C 0.7783235399 0.2212994466 0.7346436087
N -0.593998876 0.0039468252 0.7374573222
C -1.5037067395 1.1331609677 0.7481817672
C -1.3932270079 0.2471934444 -0.4397858575
H 2.72041452 -0.5660125106 -1.8197887488
H 0.1815213299 -2.7961585155 -1.139500798
H -0.4706191924 -3.1598393284 -1.128909999
H 1.2016822187 0.4027919284 1.7160712292
H -2.3497907623 1.0452992722 1.4181486152
H -1.0672906784 2.1225341022 0.6614721086
H -2.1562549126 -0.4951766284 -0.6357523829
H -0.896767408 0.6559143759 -1.3124742592
