13
0
C 2.117208142 0.0418953912 0.0342129035
C 0.6823535462 -0.3520962322 -0.2011122501
C -0.3168063165 0.621999894 0.3054842921
C -1.6080325083 0.4438971968 0.2293207387
C -2.8892771801 0.2697784225 0.158821038
N 0.2983339692 -1.4138652243 -0.7778714009
H 2.3024309038 0.1785913936 1.102499014
H 2.8044900308 -0.7121404707 -0.3480037152
H 2.3329226094 0.9955166885 -0.4540794849
H 0.0546152199 1.5325314041 0.7658809786
H -3.4502596835 0.60780014 -0.7045891368
H -3.4265575577 -0.2336286796 0.9540771045
H 1.0968568247 -1.975703924 -1.0640720814
