14
0
C -1.3728270412 -0.6547477176 -0.2516612285
C 0.1085711111 -0.3348328649 -0.319604281
C 0.5998123684 0.5744658561 0.7666589198
N 1.4963004831 0.0567132087 1.4954272066
C 1.719465777 -1.2633806584 0.9758888375
O 2.4899537535 -2.0633436023 1.3860258948
O 0.8982522401 -1.4880639357 -0.0896224698
H -1.6347103253 -1.0581113064 0.7272490529
H -1.6280199209 -1.3914899122 -1.0122213681
H -1.9619927685 0.2461240533 -0.430791244
H 0.367288891 0.072471045 -1.3034242886
H 0.2246698627 1.5802560181 0.9297678844
H -1.0403884256 2.8153929249 -1.4391311633
H -0.3182210051 2.9366188912 -1.5766147525
