11
0
O 2.0139153811 0.6346936408 0.8519666846
C 0.7417133912 0.7495098584 0.5767709602
C 0.2417640979 -0.5451524155 0.0392551384
C -1.0174152873 -0.3287240349 -0.7962347465
O -2.0101164182 0.3427853427 -0.05999027
H 2.3243206336 1.4681502248 1.2223509567
H -0.7598204701 0.2259040204 -1.7086383168
H -0.034592749 -1.1187430125 0.9366257001
H 1.0142628032 -1.114470855 -0.491443549
H -1.4386010874 -1.2866921709 -1.1053089396
H -1.5815852951 1.1088964016 0.3390893818
