12
0
C 2.1495369721 0.968859734 -0.5050601159
C 1.4788213386 0.3004561741 0.2311795266
C 0.0127500928 -1.5668508163 0.7580205811
C 0.6713614573 -0.471410978 1.1219349741
C -1.7335067044 0.8033068961 -0.9352077794
O -2.8302088084 0.3337524168 -1.0301464326
H 2.753984685 1.5551781683 -1.1562307834
H -0.5968455626 -2.109731384 1.4683871377
H 0.0633515614 -1.9504701959 -0.253669267
H 0.606856294 -0.1084244647 2.1426824876
H -0.9130031512 0.5316291915 -1.626210566
H -1.474904175 1.5404402583 -0.151213763
