12
0
O 1.2415401764 1.1093838009 -0.8050693112
C 0.468347968 0.1683204102 -0.1503736689
C -0.9803111477 0.3646240339 0.2495709337
C -1.1767889174 -0.9986162107 -0.424186705
O 0.2238492977 -1.0651942239 -0.7680804756
C 1.7463942055 0.5465178117 0.4211973324
H -1.4532865695 1.2080149186 -0.2487745004
H -1.1711402217 0.4031032298 1.319762999
H -1.4589415896 -1.8164100607 0.2406912097
H -1.8053223984 -1.0083504484 -1.3160392735
H 2.5886949253 -0.1270293292 0.2962689563
H 1.8005082713 1.2346330677 1.2599715039
