13
0
C -0.5359866035 -1.5314327749 1.1235239954
C -1.2241627769 -0.5690516082 0.2027735627
N -0.7361645923 0.3934069656 -0.4504459827
C 0.6763422606 0.6910207753 -0.3701421524
C 1.0296019504 1.8343823284 -1.2975635915
O 2.1550218202 2.1974559796 -1.4947636204
H 0.5131095492 -1.2963621428 1.2917799715
H -0.6053691938 -2.5419532407 0.7122543157
H -1.0513923489 -1.5476567219 2.0863984265
H -2.2979913947 -0.7290984256 0.080706095
H 1.3120831564 -0.1601647434 -0.637932758
H 0.9729178187 0.9998124504 0.6400095568
H 0.1590833545 2.320287158 -1.7824148183
