15
0
O -2.4003519745 1.0136813932 0.4644391365
C -2.0232238033 -0.2725063377 0.8936291961
C -0.7955018752 -0.7704994742 0.1676234801
O 0.2675648112 0.104660847 0.4898970157
C 1.4397126463 -0.1642159135 -0.2314105064
C 3.0496020963 1.6590988017 -0.6764898274
C 2.479809489 0.8507186145 0.1548828393
H -1.6305384911 1.5819479912 0.5523155304
H -2.8617309745 -0.9394234513 0.6853086734
H -1.8344585244 -0.2915540414 1.9748970232
H -0.9725611231 -0.7615059067 -0.9162833613
H -0.5561244319 -1.7981272244 0.4750016415
H 1.2535716689 -0.1228532455 -1.3116509436
H 1.8161595019 -1.16809976 0.0056807939
H 2.7936759848 0.9380327072 1.1959573087
