15
0
C -1.2879805533 0.9030018366 0.0410577858
C -1.1302299533 -0.597883646 -0.1572917133
C 0.2065573606 -1.1397569357 0.3335988818
N 1.340365206 -0.5789755656 -0.3607344975
C 1.6988284248 -0.344297999 -1.47586881
O 2.147229932 -0.0691100195 -2.5186969201
H -2.2626583292 1.2433066646 -0.3108840666
H -1.1996357392 1.1702964443 1.0966873706
H -0.5253083865 1.4597779811 -0.5060708617
H -1.2519833261 -0.8546687273 -1.214163803
H -1.917411391 -1.1308008287 0.3840569371
H 0.2377860755 -2.2271766036 0.2289942594
H 0.3358552332 -0.9148129856 1.3941927456
H 1.8615126629 1.3450412931 1.4830754738
H 1.8549787834 1.724037091 2.1256112182
