17
0
O 2.8860934425 -0.5223618391 1.7313117553
C 2.6990293033 -0.2836398843 0.5700383115
C 1.3464983574 -0.1184379565 -0.0617696078
C 0.1892815486 -0.2415602383 0.9215716672
C -1.1144295862 -0.1772732389 0.2331927652
C -1.9229012057 -0.8042698577 -0.8672944916
C -2.2865707937 0.3219223667 0.0575082924
H 3.5572200505 -0.1692090339 -0.1248397306
H 1.3363140349 0.8503648089 -0.573849288
H 1.263384829 -0.8644120931 -0.8610758854
H 0.2561155521 0.5369291747 1.6831999728
H 0.2691231376 -1.1983608301 1.4452454878
H -0.5747575582 2.2279363489 -2.5690353495
H -1.6801587969 -0.5888095362 -1.908951128
H -2.3642247253 -1.7901502858 -0.7184608942
H -0.8653523952 1.9472229719 -1.941873183
H -3.0533261946 1.0233441227 0.3343123058
