17
0
C 1.9757212738 -0.4412225509 -0.1102801656
C 1.6908894028 -1.0301509022 -1.2603230936
O -0.804911729 1.5350074046 -1.7769372688
C -1.0549054062 0.996228224 -0.7302260461
C -0.9846632965 1.6471634685 0.6140385073
C -1.5018119314 -0.4710970568 -0.7732478972
O -1.8852464861 -1.0695806046 0.1900971586
H 2.2042079493 0.6178413978 -0.0590865759
H -0.1495546891 -1.2873097341 3.1137596677
H 1.9959937901 -0.9928462188 0.8227082668
H 1.6692807816 -0.4754252656 -2.1915121913
H 1.4704209174 -2.0905182156 -1.3146973663
H -0.548806598 -1.3029328545 2.4837304323
H -0.3201092138 1.0725773944 1.2622947743
H -0.633260139 2.671085462 0.5142933761
H -1.9697213237 1.6261756256 1.0846095449
H -1.4600443025 -0.9138065741 -1.7867691232
