12
0
C -1.3442224873 -0.2926445255 0.5000803248
N -0.4262296895 -0.1227871576 -0.6642349463
C 0.9788070361 0.2048962857 -0.3366499921
C 1.7413281536 -0.8915426095 0.0683739824
N 2.3100247285 -1.8567929023 0.3599728217
C 1.1894760029 1.5417940273 0.0036986991
N 1.2843308389 2.6711203932 0.2397304319
H -0.9501658801 -1.0966392451 1.1170109985
H -2.3485165734 -0.5310587303 0.1499507904
H -1.3422554239 0.6389199535 1.0607916689
H -0.7811794661 0.6122828682 -1.2742867329
H -0.4219502396 -0.9755763577 -1.2221400463
