11
0
O 2.3567456901 1.6196134441 -0.3096015365
C 1.4934746355 0.6274710258 -0.0463136057
C -1.2373943709 -2.1201138058 -0.0113776934
C -1.0427344206 -0.8428806713 0.105111729
C -0.901940716 0.4443300129 0.2472976644
N 0.2850749898 1.1726996767 0.0158059452
H 3.2309582767 1.2285595423 -0.3405458503
H -1.0320828193 -2.7971563084 0.810634144
H -1.5943041837 -2.5505601475 -0.9407620006
H -1.7391809636 1.045437659 0.5822533369
H 0.1807758821 2.1743895721 -0.1133141329
