15
0
C -1.8668107113 -0.9716989685 0.2225087282
C -0.7349273883 -0.0564055664 -0.1475028785
C -0.6505806964 1.3429545404 0.3333531984
N 0.2013583905 0.3004469398 0.8970228621
C 1.5841453496 0.3416674587 0.592488299
C 2.1625513647 -0.3586425585 -0.3521201575
N 2.7214775685 -1.1277326235 -1.1249732826
H -2.2340597166 -0.7357688912 1.2217725733
H -1.5390293637 -2.012865515 0.2173942891
H -2.6914573114 -0.8683655261 -0.4858173888
H -0.301253563 -0.2308591076 -1.1307660356
H -0.1807807751 2.0722637817 -0.3186812404
H -1.4092011811 1.7310665526 1.0038891854
H 2.8683537822 -0.749840347 -2.0591629846
H 2.1999032517 0.9666628306 1.2267098325
