10
0
O -1.5523435918 1.750192701 0.2173255513
C -0.4918155913 0.9565539775 0.1292539525
C -1.7476861285 0.2746083378 0.1495201494
N 2.4126618654 -2.9305871771 -0.4740960534
C 2.0779480218 -1.8465782565 -0.3195714383
N 0.7536002451 0.9841275594 0.0744903462
H -2.1181618319 -0.161358192 1.0700026435
H -2.1975901625 -0.0683508666 -0.7749500033
H 1.7429217565 -0.8255856868 -0.1741608709
H 1.1177664173 1.9328276034 0.1079157229
