11
0
O 2.4102637427 -0.9920521435 0.180478653
C 1.5825613424 -0.1423423687 0.1267223956
O -0.9795378828 -2.3487709048 -0.1269114043
C -1.6447336769 -1.3503926446 -0.1586185342
C -1.0897701017 0.0278808009 -0.089485526
C 0.2072856043 0.2599780957 0.0190954637
C 1.2799818382 1.3193873012 0.1275962092
H -2.7479066421 -1.4050414637 -0.2442794325
H -1.7941483705 0.8539777543 -0.1324224649
H 1.3600806427 1.8687988793 1.0628383678
H 1.5153445039 1.9024256938 -0.7599127274
