10
0
O 2.1266631612 -0.252434448 -0.1117075436
C 0.8038169907 -0.1684795884 -0.0200818394
N -0.0332136484 -1.0606942074 0.2782957873
C -1.3179657563 -0.3582589735 0.2091490408
C -1.0916299977 1.0810907766 -0.1754187152
N 0.2247510446 1.0929283341 -0.2906742924
H 2.3783088387 -1.1584220033 0.0980518482
H -1.9850569422 -0.8318269263 -0.5179584159
H -1.8401338859 -0.4009032118 1.1701932689
H 0.7738611954 1.9002542481 -0.5430091387
