16
0
C 1.1474079224 1.2015927955 0.1930356373
C 0.5196401131 -0.1528988946 -0.0936767582
C -0.4644211115 -0.6269112788 1.0031014083
C -1.6258272493 -0.0926245248 0.1394454954
C -0.6754032126 -0.0891161568 -1.0755110892
C 2.367475581 -1.8529144913 -0.719657809
N 1.540121555 -1.0844745474 -0.4379734072
H 1.6785377746 1.5699351507 -0.6855779862
H 1.8522401788 1.1272293108 1.0222149593
H 0.3740759747 1.9239967643 0.4583024226
H -0.3194237339 -0.2038843627 1.9971633604
H -0.4741507803 -1.7139870256 1.0717628748
H -2.5131562049 -0.7184438588 0.0681132152
H -1.9336864954 0.9116811951 0.4303883362
H -0.7496682963 -1.0082612882 -1.6551134947
H -0.6992830155 0.7667232125 -1.7501311648
