14
0
O 1.4636966157 -1.2729153529 0.040565299
C 0.2684593082 1.5511147707 -1.191341298
C 0.2600166785 -0.6026427931 0.2164835072
C -0.8083751282 -1.1361636482 1.0813758255
N 0.0428066141 -0.0056806319 1.5001012388
C -0.0929778815 0.1498662193 -1.0306192499
O -1.0689427043 1.1620512426 -0.8886025181
H 1.9054343351 -1.2787410623 0.8939115163
H 0.7947579165 2.0594909476 -0.3887167081
H 0.4141208898 1.9590756237 -2.1861655675
H -0.639613273 -2.0583710684 1.6239821455
H -1.8385252815 -0.9238913801 0.8171903891
H -0.4633870701 0.8695402875 1.4168159809
H -0.1928260191 -0.4691081548 -1.918579561
