15
0
C 0.9079974808 1.2815950566 0.8015371079
C 1.1046092 0.0368235889 -0.018008125
C 0.3313897434 -1.2220101468 0.1991325334
O -0.8691340123 -1.1532553911 0.9386875445
C -1.7459741794 -0.4093763008 0.2084163694
C -1.273688089 0.0080378373 -0.9618855489
C 0.1340641781 -0.4448528556 -1.0862773595
H 1.4140025607 1.191013235 1.7646491859
H 1.318021812 2.1508484301 0.2835598937
H 2.1379193151 -0.1669273963 -0.2790828518
H 0.8170656516 -2.1843413237 0.286047845
H -0.1459127403 1.4765030605 0.9970761508
H -2.7074518517 -0.2526230544 0.6750045614
H -1.8225012714 0.580038467 -1.6926476647
H 0.5209422022 -0.7753772066 -2.0414976423
