13
0
C 2.4765169739 0.5653003826 -0.7914501901
C 1.3491096515 0.7931705404 -0.4492339968
C 0.0378294453 1.073353677 -0.0484207826
C -0.9376000634 2.150324842 0.3369225044
C -1.1515435596 0.6721541536 0.2569233727
O -1.5249403116 -2.5936830081 0.3582498533
C -0.3614123474 -2.7385533749 0.1107361428
H 3.4776494973 0.3688631552 -1.0949314659
H -1.346747284 2.7957139447 -0.4385294125
H -0.8426161057 2.627700212 1.3108656395
H -1.8347593548 -0.1514261864 0.3827728017
H 0.0972149036 -3.7435966705 0.0558006965
H 0.3113205548 -1.8807976676 -0.0742651629
