13
0
O 0.5607564853 1.5343627439 -0.9420142122
C 0.1049374364 0.3524378579 -0.2503323619
C 1.3623765659 -0.4884205743 -0.0499330356
O 1.6323840934 -0.4280120951 -1.4765901799
C 0.4739451056 0.3376213114 -1.6599791363
C -1.379028196 -0.3046355447 1.5955897565
C -1.1500650752 0.3955044197 0.4944489047
H 1.1668289479 -1.5196853431 0.2459610889
H 2.1560056619 -0.0396263359 0.5471770407
H -0.0344872098 0.3237343933 -2.6143381483
H -0.6283898324 -0.9602143312 2.0226118871
H -2.3301256482 -0.248799518 2.1085634036
H -1.9072983348 1.0573200159 0.0868149927
