16
0
O 3.0324210385 -0.4945433857 0.3021759222
C 2.2209967837 -1.3189399698 0.6082241689
C -0.3709347413 0.3503170839 -0.5595400977
C -1.016711032 -0.7390376002 0.2492261216
C -1.8331740102 0.070460354 -0.7172719072
C 0.0877318175 1.6197986841 0.108954444
H 1.0957094449 1.5145144606 0.5155305253
H 1.9537992296 -2.1545302267 -0.0664141701
H 1.6946545072 -1.2928452446 1.5805189598
H 0.2596779939 0.0178307383 -1.3775903442
H -1.1649435554 -0.5574435716 1.307119528
H -0.8147211418 -1.7728634699 -0.0025484795
H -2.1757463615 -0.411830371 -1.623175475
H -2.5275468706 0.7934894349 -0.3072133405
H -0.5822159459 1.8880431507 0.9297191822
H 0.0976218433 2.4532889331 -0.5967210378
