14
0
O 2.2979676686 -0.3574770343 0.3081298769
C 1.408256163 0.1198402245 -0.6678663936
C -0.0328937256 0.0812211872 -0.1949982091
C -0.4838403831 -1.0233280792 0.7064415045
N -0.2056345996 0.288998568 1.2470451827
C -1.0290665971 0.5075926474 -1.1902892696
O -2.1136761324 0.9166803728 -0.569623771
H 2.031864296 0.0471487609 1.1420107022
H 1.6528134389 1.1512278497 -0.955241315
H 1.5149149666 -0.5049775947 -1.5557347354
H 0.2418476325 -1.7906213359 0.9466114468
H -1.5166278378 -1.3450475594 0.6312424808
H -1.0658169994 0.7944612553 1.425983872
H -2.7695708905 1.1522327377 -1.2325473721
