14
0
N -1.331536066 1.8336049616 -1.1786208926
C -0.8984494303 1.0354726335 -0.3160480906
C 0.1227646106 0.8239985714 0.6985255347
C 1.4363429467 0.1671783397 0.288020574
C 1.0076494821 -1.1633969176 -0.2755054967
C -0.2993337468 -1.3730145648 -0.1753153863
C -1.0134400725 -0.2187981899 0.4461117525
H 0.0952622607 1.4568709186 1.5776582633
H 1.9693222426 0.7697688705 -0.4527203669
H 2.1094123709 0.0425392115 1.1414325961
H 1.7073731172 -1.8533853525 -0.729914287
H -0.8177769616 -2.2569346219 -0.5238462038
H -2.1851222048 1.4722134585 -1.6041337292
H -1.8300815487 -0.3786593184 1.1410297327
