14
0
C -1.9921003672 0.5725421777 -0.3714518141
C -0.550362978 0.3579219175 -0.0658067392
C 0.3696013853 1.24039576 0.3367925953
N 1.6589597528 0.6766722667 0.5385975245
C 1.5295795164 -0.5602260888 0.2584556054
O 2.5155743495 -1.4566377014 0.3232666449
C 0.1526940776 -0.9685473887 -0.1598816067
H -2.2235990509 0.3185822307 -1.4097818979
H -2.2722833466 1.6137708703 -0.2095090475
H -2.631201902 -0.0505703381 0.2605323991
H 0.2294579411 2.2974149575 0.518410933
H 3.3065443729 -0.9882398348 0.6154867285
H -0.2552684508 -1.7281429473 0.513181234
H 0.1528787 -1.3970518814 -1.1661145595
