10
0
O 1.9809321052 -0.6343417436 -0.2512403758
C 0.878782441 0.0512186656 0.0334983744
C 0.4122968097 1.2925720663 -0.0585247469
N -0.8115479031 0.9175651486 0.6224563037
N -1.8537029893 0.4292114808 -0.2835092656
C -1.3725889135 -0.7455566869 -0.1743917788
N -0.2795738911 -0.4755110293 0.703564736
H 2.0379473172 -1.3984077595 0.3306397728
H 0.6997026902 2.2727160336 -0.3917216809
H -1.7160156663 -1.7006531756 -0.546173339
