16
0
C -1.2507347033 0.8640036274 -0.800509379
C -0.3222455852 -0.07787623 -0.0339843659
C 0.2974179331 -1.083986994 -0.962908114
C -1.0469061319 -0.7761924077 1.1165153121
C 1.6622490095 -0.8299348722 -0.8906940211
C 1.9273881429 0.2294711451 -0.0114911239
N 0.8201970995 0.7014336501 0.512469362
H -2.0708570112 0.2888136839 -1.2264801084
H -0.7179834632 1.3517487656 -1.6180641041
H -1.6640716262 1.6299283931 -0.138363451
H -1.8615683913 -1.3757227609 0.7144606036
H -1.4590446021 -0.0464637891 1.8191207083
H -0.3682431435 -1.4400010559 1.6538856949
H 2.4430329821 -1.3558216223 -1.4239236461
H 2.8850879767 0.6639715661 0.2593067402
H 0.7715735141 1.4652389006 1.1645518923
