10
0
N -1.6917825488 -0.4511885016 -0.5154393759
C -0.9042040819 -1.4482075368 -0.1083724849
N -0.1826188524 -2.2935337145 0.1995380052
C 2.1850949965 0.2531867591 -0.2612925555
N 1.2936369648 0.9214396465 0.0949271699
N 0.2915149462 1.6373311995 0.2795878073
H -1.3245419075 0.4730901323 -0.293621981
H -2.676909065 -0.5816479568 -0.35678847
H 2.6102692217 -0.7112752132 -0.0597083735
H 0.4827743266 2.2964641856 1.0299312584
