13
0
O -0.1999340968 2.022184169 1.2079013309
C -1.4310253622 -0.9604606423 -0.0422605669
C -0.9663757416 -1.1085728094 -1.2733767298
C 1.8142722084 -0.1926914327 0.2382226577
O 1.9188176334 0.8785423435 -0.2971118508
H -0.4364606148 2.9494943794 1.2034527234
H -1.3864334302 -0.004548712 0.4708719561
H -1.8765880227 -1.7923749926 0.492685222
H -0.5279782733 -0.2767691128 -1.8140350871
H -1.0126735474 -2.0593236971 -1.7930817016
H 1.2565281746 -0.3170005029 1.1811008445
H 2.2751013641 -1.0979362099 -0.1930750899
H 0.5647797083 1.9377142197 0.6212092911
