14
0
O 1.9346887917 0.0042072237 -0.5817815668
C 0.963058073 0.0649043065 0.4804636763
C 0.1569124374 1.3073032026 0.3230689804
N -0.6822335735 0.8967457965 -0.8997203484
C -1.0560893227 -0.5408162022 -0.7775914967
C -0.0237741921 -1.0664036792 0.2280126444
O -0.0944592429 -2.1498943258 0.7436383526
H 2.4243626972 -0.8187109157 -0.4996100073
H 1.4262456509 -0.0199502098 1.4649794008
H -0.5549244301 1.4082448716 1.1490392705
H -0.0845399413 1.0391499494 -1.7086178173
H -1.4814205024 1.5104558748 -1.0000488216
H -1.0243668339 -1.0816915106 -1.7239764284
H -2.0553596112 -0.6108083819 -0.3521258385
