12
0
C 2.1571221438 0.3922544207 -0.6556910388
O 0.7450142402 0.1610901029 -0.5910625556
C 0.3453158522 -0.8173266116 0.1500297078
C -1.1345634933 -0.8612921462 0.1416062458
C -1.8647427698 0.2549573522 0.7629820967
O -1.9230747197 0.047621886 -0.6238238451
H 2.4527409406 0.3287620759 -1.701907591
H 2.3458728366 1.397530491 -0.2811551916
H 2.6710134575 -0.3553724837 -0.053721516
H -1.5589872938 -1.8554015386 0.2464544177
H -1.305758931 1.1315173594 1.0816017612
H -2.7721212632 0.041254092 1.3208505089
