10
0
O 1.9895039856 -1.4176928969 -0.278491423
C 0.9856929717 -0.9219033254 0.0959824909
C 0.6967368201 -0.1524784358 1.4120411023
O -0.5390164958 0.1629367563 1.3057309829
C -1.1723079311 -0.2844086196 0.0556753419
O -0.1875816191 -0.9510690504 -0.6340734564
H 0.8674430953 1.7882440952 -1.2582749452
H 0.8652334039 2.1519526519 -0.6070070406
H -1.5086698001 0.6092268981 -0.4701816614
H -1.9977884306 -0.9415420733 0.3277236086
