11
0
C -0.5590377301 0.8122472743 0.4222107545
C -1.4385047221 -0.170695499 -0.3618697337
C -0.7624583306 -1.2936465738 -0.3400519883
N 0.3113110343 -1.8102300114 -0.041415121
C 1.3048032857 -0.7653464858 -0.1572565138
C 0.909742777 0.4699765386 0.1550597472
H -0.7806273607 1.8074886938 0.0313210672
H -2.1922270748 0.1205673952 -1.0733286776
H -0.7450788962 0.8560415799 1.5017927472
H 2.3231633949 -1.0683363091 -0.3523423742
H 1.6472296226 1.2573943971 0.2513460925
