13
0
C 1.8153504117 -0.038008142 -0.4397302616
O 0.6427431615 0.5552451534 0.0835996711
C -0.0068408002 -0.1736690563 1.0214803148
C -1.1259254676 0.2426237732 1.593602224
O -2.2059471107 1.0612795835 -1.6162178922
C -1.6393426514 0.0788658485 -1.8364672037
O -1.0867863779 -0.9085833227 -2.0799787235
H 2.5540398388 -0.2129132334 0.3482751548
H 2.2256264359 0.663980748 -1.1625710068
H 1.5870764335 -0.9810681325 -0.9450991164
H 0.4485866059 -1.1305669713 1.2683240045
H -1.5683109124 1.1966384213 1.3382299371
H -1.6088515668 -0.3772826696 2.334271898
