10
0
O 2.0638817582 -0.9056868428 -0.1389820068
C 0.9709193105 -0.4277176032 -0.2195083228
C 0.5939892927 0.9344811965 0.2756944946
N -0.7164898131 0.9776865065 0.9483444469
N -1.5694768044 0.137363116 0.6559832185
C -1.2554025977 -0.82540545 -0.3754052866
N -0.1075830022 -1.1330790669 -0.8063513166
H 1.33714477 1.3234360998 0.9686327607
H 0.5281249948 1.634317432 -0.566308844
H -2.1430009087 -1.3097273881 -0.773661144
