13
0
C 2.1051299242 0.3492978743 0.3481073206
C 0.787660763 0.1701279457 1.100793351
C -0.357534232 -0.0654081364 0.1697407642
O -1.3994357688 0.5442591027 0.2008785946
C -3.7251188678 -0.9798446415 -2.5827402239
N -3.1338901133 -0.4450199652 -1.7380506074
H 2.9326373544 0.448386093 1.0497612971
H 2.3162048544 -0.5059561076 -0.2970488285
H 2.0842244299 1.2451134782 -0.2741913803
H 0.5540861644 1.0252454313 1.7355722925
H 0.8499491736 -0.7170627414 1.7422925553
H -0.2077734069 -0.8609691007 -0.5884689847
H -2.589608275 0.0040567675 -0.9998141505
