20
0
C 3.0380521464 0.0659660969 0.0180500931
C 1.5776596759 -0.3235749721 0.1990315328
C 0.6629303263 0.4453627075 -0.7363659568
N -0.7324763323 0.0778095026 -0.515007975
C -1.8488908719 0.9856667979 -0.8275824454
C -1.5327826173 0.7421148622 0.5972699444
C -2.4330014797 -0.2783730385 1.2431870624
H 3.1900449792 1.1271987515 0.226788409
H 3.3790820246 -0.1252824488 -1.0024981159
H 3.680650203 -0.5002596441 0.6930250043
H 1.456627796 -1.3987778182 0.0261412829
H 1.2507207653 -0.1246850531 1.2226522689
H 0.9188651339 0.2644697227 -1.7864038936
H 0.7303593391 1.5154051597 -0.5397652421
H -2.6634946592 0.4663835714 -1.3422599652
H -1.5521564053 1.9124535605 -1.3114042131
H -0.9409323949 -0.8922232489 -0.7374401065
H -3.2799278335 0.2380286938 1.6999717525
H -2.8555383142 -1.0302515919 0.5434831545
H -1.9210174815 -0.8168746111 2.0441574087
