11
0
C -0.2438856994 -1.313107176 0.0584030967
O -1.1526801401 -0.3534110915 -0.4630871852
C -0.638087861 0.9099403293 -0.0887113059
C 0.873656195 0.6750275883 -0.0094997063
C 1.0925724245 -0.7590680234 0.2685776984
H -0.4953350927 -1.5827511855 1.1105573362
H -0.2948284059 -2.2384881949 -0.5164511012
H -1.0339466339 1.218696933 0.8889985814
H -0.9412664835 1.6434692658 -0.8352232164
H 1.4621900446 1.3647173744 0.5941546771
H 1.3182746522 0.7049431806 -1.023660875
