17
0
C -1.4835520164 -0.3666458073 -0.7529733576
C -0.7312162825 0.2387292848 0.4195878112
C 0.6720020104 -0.3404162083 0.6445999998
O 0.4866318292 -1.6737855473 1.091592917
C 1.5605245834 -0.2824150343 -0.5877505446
C -0.6454146327 1.7432003357 0.3476263565
O -1.0888408263 2.4201562189 -0.5381905192
H -2.5235165664 -0.0405259084 -0.7483103679
H -1.4587354689 -1.4545999111 -0.6932017968
H -1.0548612984 -0.0510826816 -1.7044963863
H -1.2721418804 0.0306691576 1.3531467337
H 1.1467242188 0.2444042106 1.4469888897
H 1.3423712722 -2.1027537033 1.1466935572
H 2.5694985883 -0.6260731972 -0.3470451688
H 1.1640555083 -0.9156963029 -1.3820558986
H -0.1268706804 2.2206120644 1.2081745706
H 1.6424236416 0.7382460296 -0.9684567959
