12
0
O 1.2925088067 -0.6361116567 -1.7063921054
C 0.0035064941 -0.7618331871 -1.7180993348
C 0.124415947 -0.5145506405 1.3616461165
C -0.5581879551 0.4787432245 0.4691355406
O 0.2485284666 1.3242235618 -0.3427446861
C -0.6230104609 0.3825809758 -0.9964571663
H 1.558361024 0.1870022112 -1.2319469436
H 0.9185056488 -1.0574247118 0.8510323717
H -0.6048402023 -1.2393695699 1.7266953521
H 0.5532239658 -0.0004618642 2.2232841077
H -1.383552916 1.011492858 0.9375168727
H -1.4818468187 0.8207357989 -1.496425125
