19
0
C 2.2856498167 0.2845910514 -0.3869829168
C 2.1598885257 1.3739035421 0.6314793807
O 1.3547663484 1.3911052106 1.5238921548
C -0.8641694723 -1.1806039993 1.2584636073
C -2.2303434294 -1.6199870639 0.8161773719
C -0.9295256282 -2.3613498172 0.7525504919
C -1.0799930496 1.2406082278 -1.4477465297
H 1.5336277795 -0.486885629 -0.2315246687
H 3.2883074902 -0.1475166127 -0.3287319526
H 2.1821979178 0.7131079423 -1.3871830799
H -0.8578160272 0.1935377071 -1.650800962
H 2.8807215504 2.2108585012 0.5240748193
H -0.2864327747 -0.3763218407 1.6835591947
H -2.6594710589 -1.2026259309 -0.0943913004
H -2.9729445938 -1.8959320787 1.5636680787
H -0.4445798099 -3.2763075826 0.4617193459
H -0.4592026301 1.8763369403 -2.0785808202
H -2.1292990752 1.4361427258 -1.662792436
H -0.8793158792 1.4546187061 -0.398925779
