16
0
C -2.0387908785 -0.7447120655 -0.3528000482
C -0.7207139856 -0.0348035031 -0.574046475
O -0.9697140541 1.0777986554 -1.4169432101
C -0.1203917415 0.4213505551 0.7439002366
N 2.264019421 -0.859804462 0.5680126395
C 2.2319601247 0.3942799921 0.4615716639
O 1.112588544 1.1222514098 0.5255386464
H -1.89822499 -1.646206067 0.2455884171
H -2.4707152534 -1.0303356208 -1.3116629386
H -2.7462924109 -0.0875382991 0.1573402327
H -0.0116006836 -0.719293969 -1.0561386765
H -0.1591154279 1.5882264134 -1.481683783
H -0.7781638647 1.1508697231 1.2179959409
H 0.0526762415 -0.4240015107 1.4102341511
H 3.2163457579 -1.1990379871 0.5046773998
H 3.0866482011 1.0561917354 0.3092048032
