17
0
C 0.9991157275 -0.4498629165 1.0555219246
C 1.11543106 0.6751106478 0.0765657912
C 0.9938170142 -0.7662391526 -0.4074273098
C -0.2131850606 -1.2421848092 -1.1213385524
C -1.3345496747 -1.680219773 -0.5701609836
C -0.9837989306 1.8975765289 0.6790342517
C 0.0274978225 1.6567860167 -0.140717475
H 1.8720250836 -0.7206089367 1.6342591108
H 0.0652364536 -0.5499926469 1.5927041478
H 2.1083975437 1.0939365907 -0.052038858
H 1.9188355685 -1.167509359 -0.8081099883
H -0.1453165923 -1.2085781391 -2.206338327
H -1.4595159244 -1.7464736313 0.5045810604
H -2.1734222062 -1.9907028956 -1.1804541984
H -1.0891044108 1.3794345507 1.6254089683
H -1.743355957 2.6292468041 0.4334762625
H 0.0891004829 2.215200121 -1.0719098246
