16
0
O 2.9271553507 0.7738981185 0.4656065238
C 2.9672641936 0.3612235072 1.6965714283
C 0.0797712523 -0.6246197266 -0.5366458831
C -1.3839730607 -1.062420816 -0.3236117118
C -1.7937533799 0.4240619634 -0.3666113657
C -0.3272780839 0.7962258777 -0.0655367982
H 2.1044440177 0.5623673018 -0.0108117247
H 0.8431994823 -1.1676650476 0.0269409996
H 1.9939249231 -0.1624212297 1.8981520012
H 0.3506401836 -0.6351812487 -1.5940912786
H -1.5280465334 -1.4882666339 0.6703975114
H -1.8219157261 -1.7358903496 -1.0595214255
H -2.0834918167 0.7307075172 -1.3726740328
H -2.5546107854 0.7633135119 0.3353580612
H -0.1662991909 0.9277628911 1.0068682986
H 0.0919291737 1.6566873633 -0.5900136036
