12
0
N -1.9926240937 0.5950640537 -0.067711279
C -0.6304083423 0.3852673499 0.0990249535
C 0.2495771405 1.2674344671 0.6614447023
N 1.4801109628 0.5708339823 0.448070442
C 1.449485545 -0.575533024 -0.158269293
C 0.0326961135 -0.830745506 -0.4884800644
H -2.3037341798 1.4097183243 0.439558041
H -2.5820024733 -0.202915758 0.1098237337
H -0.1083814767 -0.8714799525 -1.5736176019
H 2.3441450667 0.9720459992 0.7835252984
H 2.3199002221 -1.1902525011 -0.3346764827
H -0.3068754849 -1.7908514348 -0.0859414498
