16
0
C -1.7405396925 0.4676164419 -0.3611497839
C -1.47759431 -0.1681146937 0.9664835998
C -0.9676404112 -1.3786908269 1.1423932217
O 1.3203628322 -0.8104172127 -1.6745033523
C 1.7669617563 -0.4558198823 -0.6173618758
C 1.9080050982 0.9713022368 -0.1875449903
H -1.246471413 1.4404277069 -0.4332682191
H -2.8100402973 0.6488456513 -0.4972850966
H -1.3862651253 -0.1570708779 -1.1813185493
H -1.7391985321 0.4212727738 1.8430472891
H -0.6990312652 -2.0064594121 0.2987065134
H -0.8122797858 -1.7883690921 2.13342216
H 2.1075113293 -1.2077779762 0.1243868894
H 2.9538639198 1.1792453323 0.0528204822
H 1.3309939022 1.1197108816 0.7290519294
H 1.5609439944 1.6470809491 -0.9668762181
