12
0
C -1.2659531216 0.7347227152 0.8582785664
C -0.9601240262 -0.1844506702 -0.2364575627
O 0.62191205 -1.7357022956 -1.1661064883
C 0.4124682351 -0.6921393634 -0.2514279881
C 1.402933014 0.4535135255 -0.5818191271
O 1.679817043 1.3479982366 0.1569179336
H -1.6794228927 0.0214445888 1.5954085275
H -0.4319680497 1.2570789165 1.3389725402
H -2.093618152 1.404508764 0.6252445643
H -0.2181707193 -1.8545846207 -1.6225418603
H 0.7031954775 -1.0206156941 0.7601366676
H 1.8537971419 0.3303638974 -1.584518773
