14
0
C 1.1172354666 -1.2549545671 0.1200791075
C 0.6055896186 0.1179816761 -0.190754554
C 1.4504281692 1.2885853571 -0.3539769873
O 0.8464219253 0.6243604101 -1.4676974716
C -1.6431901848 -0.4543714353 -0.0491783779
O -0.6785778538 0.4069019994 0.3064514861
N -2.7786081209 0.0103744707 0.437857956
H 2.1418033258 -1.3508443978 -0.2365108772
H 1.0927836294 -1.4297633136 1.1963401505
H 0.4900321537 -1.9983755782 -0.3689792449
H 1.0374095018 2.2657364543 -0.124356261
H 2.5301519282 1.1932102087 -0.2841672673
H -2.8397310548 0.8781088745 0.9582117123
H -3.6205185041 -0.508343159 0.274121629
