18
0
C 2.167520829 -0.883150516 -1.0750868709
C 1.1821463297 -0.852652463 0.0787119394
C 0.2418422162 0.3353394509 0.0451378206
C -0.7932964369 0.4031782003 1.1498611791
C -1.7386029651 1.5843629899 1.0321719142
O 0.3106175445 1.1775329384 -0.8157756464
H 1.6445109786 -0.9202042819 -2.0310229633
H 2.8186032878 -1.755444054 -1.004183629
H 2.7881412391 0.0129634211 -1.0816281844
H 1.7004725456 -0.8364746698 1.0438636674
H 0.5675141861 -1.7591588001 0.0977933065
H -0.2549387015 0.4189260464 2.1040631693
H -1.8931560545 -1.3656768048 -1.8524438523
H -1.3419336493 -0.5449050103 1.1454943529
H -1.1904726624 2.526382656 1.0463279061
H -2.4544885329 1.5883664989 1.8551710206
H -2.2925382238 1.547544501 0.0936828998
H -1.5568019301 -0.7021021033 -1.9037720297
