18
0
C -1.0691327947 0.9378786404 0.7260803259
C -1.1919993483 -0.566198502 0.4653743829
C 0.1221896129 -1.3538987772 0.5138709875
C 1.1137478369 -1.0126261924 -0.5557570565
C 2.3714447408 -0.6557705794 -0.3453380901
C -0.692303075 1.7694064605 -0.4960192889
H 0.2891813463 1.4967506701 -0.8841892472
H -0.3379055544 1.1053990703 1.5244601656
H -2.0247388097 1.3032330639 1.1131127231
H -1.859807818 -1.0021328439 1.2135047157
H -1.6795084507 -0.727739339 -0.5031988042
H -0.120058539 -2.4191466124 0.424778486
H 0.5899333297 -1.224440328 1.4950769351
H 0.7507381772 -1.0826193741 -1.5801381159
H 2.7741127842 -0.5694538233 0.6589016638
H 3.0457841711 -0.4369706231 -1.1644143378
H -1.4211632427 1.6282961082 -1.2984991978
H -0.6699223663 2.8337659812 -0.2530852472
