12
0
N -2.2055388888 0.2607974779 0.0787151905
C -0.8389655114 0.0917011655 0.0296436916
C 0.0364642747 1.1555657441 0.0957355272
N 1.3774469426 1.0043418813 0.0994448178
C 1.8235814473 -0.2050824446 0.0352938312
N 0.9859563758 -1.273937436 -0.0406938038
C -0.358820608 -1.2516783302 -0.0559616679
H -2.5863704334 1.1419597866 -0.2175823342
H -2.7283151093 -0.550272908 -0.2061722096
H -0.3196211189 2.1811879617 0.1512915916
H 2.8891354134 -0.4050958974 0.0370868464
H 1.4227772159 -2.1830190011 -0.098675481
