12
0
C -1.7097452145 -0.23354688 -0.2007391399
N -0.5740798042 -0.4061914563 0.6866463219
C 0.691728667 -0.0651978344 0.2638113103
O 0.8708862226 -0.3984369752 -1.0385416398
C 1.6461275714 0.4778383824 1.0301732928
H -1.559088853 -0.8073540886 -1.1123163342
H -1.8876385397 0.8135719647 -0.4753110075
H -2.5987243851 -0.6199782884 0.296685366
H -0.7438687092 -0.1200685435 1.6356740833
H 1.7358212891 -0.0887517121 -1.3135856534
H 2.6573875835 0.5905432834 0.6649277132
H 1.4374271721 0.7695561483 2.0487346874
