13
0
N 0.7678490792 -0.8040689541 1.0317797793
C 1.7570142345 -0.0860898622 0.5561075417
C 1.184252106 0.451193747 -0.719260663
C -0.0545214004 -0.2721024943 -1.0930547886
C -0.5041078635 -0.6874675173 0.3136090058
C -0.9353119801 0.788094027 0.4532009012
N -0.1501850993 1.1601955765 -0.7483330711
H 1.8392945618 0.8513694777 -1.4788759918
H -0.3115758343 -0.686503956 -2.0590145558
H -1.2035646469 -1.4978455779 0.4989242411
H 0.8131614139 -1.2337875404 1.9427532768
H -1.9866339373 0.9400025269 0.2132551047
H -0.6748556338 1.301621547 1.3809212195
