10
0
O 2.0209344533 -0.1377759213 0.3431050652
C 0.7938686824 0.155073493 -0.0539177583
C -0.3759152739 -0.5874642315 0.4973531408
N -1.3946156914 0.1149895596 -0.2504752442
C -0.9367068632 1.0647080128 -1.0654609181
N 0.4864115291 1.0549996307 -0.9055458552
H 2.6204230315 0.4538629518 -0.1307762585
H -0.3290430622 -1.6541470961 0.2675674176
H -2.375003322 -0.0877569361 -0.1705773455
H -0.4695354837 -0.460062463 1.5780117564
