16
0
C -1.3147081672 0.71903321 -0.3665358263
C -0.4736102197 -0.0785476949 0.6210776619
C -0.3798986773 -1.5571642535 0.2154779318
O 0.2426756958 -1.7459516344 -1.035394787
C 0.9192688487 0.4531779509 0.8261764269
C 1.5447992379 1.3484799456 0.0750784615
H -1.3751327156 1.7697786792 -0.0781269136
H -2.329520473 0.3191508935 -0.4053762374
H -0.9026472266 0.6607142936 -1.3749403982
H -0.971481922 -0.0659839237 1.5986051671
H -1.382827521 -1.9784164307 0.1215711965
H 0.1438185621 -2.1190831979 1.0010657256
H 1.4590589287 0.009950035 1.6615852133
H 2.5643316919 1.6441330004 0.2909260392
H 1.0646697769 1.8286540401 -0.7699240449
H 1.0873491803 -1.2863729133 -1.0193106165
