10
0
O -2.6589625419 0.1601998718 0.1020973013
C -2.0256874878 0.0631771411 -1.0143001374
C -0.549768346 0.2231128917 -0.7778116951
N -0.0881612614 -0.1704431015 0.3386829331
C 1.2990574508 -0.2114203872 0.527314178
N 2.0774378777 -0.6808746778 -0.3464594378
H -2.0313833482 0.2704078616 0.8580987822
H 0.0868149347 0.576697129 -1.5900169243
H 1.6010067482 0.1562832494 1.5109674185
H 3.0399719737 -0.658392978 -0.0218074184
