12
0
N 0.0613673033 0.2041977521 0.3316986826
C 1.2843291084 -0.4809190771 -0.16933417
C -1.1876026561 -0.4831000278 -0.1149284303
O -2.3059211996 0.1136526792 0.4486521046
C 2.3005724709 0.4440182184 -0.4438240136
N 3.0921233324 1.2452111162 -0.7246849149
H 0.0088518774 0.3137550551 1.3491459627
H 0.0698626154 1.1501092756 -0.0464425065
H 1.5353507459 -1.3309745137 0.451421676
H -1.1625451319 -0.4753234204 -1.204432866
H -1.1118284628 -1.5088949457 0.2413036104
H -2.6788110034 0.7633888881 -0.1495871349
