13
0
N 1.8829838217 0.609446172 0.0861873554
C 0.6416153399 0.1269244166 -0.4615630764
C 0.0357739168 -1.1437961984 0.1881785952
O 0.6925669166 -2.1287202077 0.4373748831
C -1.3681135089 -0.8541074032 0.4113935644
C -1.5641063989 0.4402680945 0.0682922573
N -0.434493655 1.0877533522 -0.3266231855
H 2.5929321376 -0.1010669694 -0.0455284273
H 1.7845555143 0.7443099295 1.0858617739
H 0.8020079292 -0.1120742091 -1.520646018
H -2.0961590218 -1.5250683935 0.8364203743
H -2.4966232349 0.9892911755 0.1038175063
H -0.4677747568 1.912100241 -0.8983916025
