11
0
C 1.1714704913 1.1729027706 0.1031490221
C 0.534437581 0.1442835637 -0.3835439305
C -0.0877130349 -0.908669887 -0.8262326426
N -1.5097041117 -1.4091166036 1.1281843749
C -1.0580596499 -1.6932919532 -0.0151602027
C 0.3234223463 3.5708271882 -0.0463986559
N 0.689132247 2.4642660203 0.0077057599
H 2.1262813 1.0657391338 0.6047711931
H 0.1067396711 -1.2446427949 -1.8406766762
H -1.1296037144 -0.5253736359 1.4723709203
H -1.4084901258 -2.6134248019 -0.4844681625
