10
0
C 3.4491854192 1.421859002 0.0248612958
C 2.2534667908 1.329356845 0.0508515075
C 0.8807388935 1.222857356 0.080003125
C -0.3157390971 1.1327905982 0.1040697207
O -3.178489448 -0.3895725171 0.0167219002
N -2.624076806 -1.4476932329 -0.0643123099
C -2.0872312368 -2.4603162629 -0.141718852
H 4.5099826209 1.5069658531 0.0016625423
H -1.3805594566 1.0368654854 0.1228765719
H -1.58076768 -3.3916251269 -0.2129215017
