17
0
C -2.1218669967 -0.2146245468 -0.2066174734
C -0.6519659134 -0.5239841732 -0.3741498634
O -0.0161280307 0.55170669 -1.0703575872
C 0.1431279423 -0.678062873 0.916056783
C 1.5453451766 -0.3079459139 0.4502411947
C 1.2716404811 0.8107212409 -0.5585293043
O 1.3314983162 2.097051859 -0.0062687851
H -2.629474791 -1.0434448021 0.2912771407
H -2.2558099452 0.6884036472 0.392727434
H -2.5939080749 -0.055921399 -1.1765775639
H -0.5398988868 -1.434641329 -0.9792236997
H 0.5807409823 2.2062574546 0.5831337316
H -0.221541788 0.0276405122 1.6696636625
H 0.0705045956 -1.6803257761 1.3376212208
H 2.0083997149 -1.1556380977 -0.0607172177
H 2.2182085485 0.0258309222 1.2380216554
H 1.9883756693 0.8287675848 -1.3817463278
