15
0
C -1.3334190739 0.3291359744 -0.8802075175
C -1.6006362635 0.0116767926 0.5635896058
C -0.2156906838 -0.0800861817 0.0143932253
C 0.698318619 -1.301230247 -0.0005086274
C 1.8410578661 -0.5061636278 0.621137293
O 1.7112289301 1.0975140625 -0.7059685376
C 0.9689349135 0.7370789347 0.4651145583
H -1.6589667332 -0.384823093 -1.625972021
H -1.3750984471 1.3635089737 -1.1963112019
H -1.8291415195 0.8325678894 1.2320942489
H -2.1107938439 -0.9141613627 0.7987004129
H 0.4293349721 -2.0951209336 0.7071938946
H 0.9326627439 -1.7788130879 -0.9535648641
H 2.6197199103 1.2735155488 -0.4300072933
H 0.8837456094 1.5471503575 1.1912378241
