16
0
C 2.0285656494 -0.0594835728 0.1694815279
C 0.6971106042 0.2764650102 -0.4420547107
C -0.0948105887 1.4371105189 0.0189420682
C -0.5781899882 0.0539635303 0.3932801379
C -1.8883949756 -0.5119654826 -0.1902043656
C -1.0847161755 -1.6318865226 -0.6688130489
H 2.0477866461 0.1808639659 1.2351018674
H 2.8284938272 0.5046367427 -0.3145891528
H 2.2469789865 -1.1228504955 0.0559947158
H 0.2909741678 2.0272960018 0.8415690476
H -0.6808495584 1.9903718516 -0.7025256173
H -0.3946705293 -0.2416588116 1.41753312
H -2.6042029565 -0.6497149464 0.6233545728
H -2.2984274147 0.136488255 -0.9648964555
H 0.6017520859 0.0338938221 -1.4906989136
H -0.9211777801 -2.292054867 0.2048692067
