17
0
C -2.0928345568 0.2105732283 0.0437656806
C -1.207425598 -0.9420854704 -0.4142018804
C 0.2719738922 -0.7344171453 -0.086279112
C 1.0011814589 0.3949655284 -0.8414647022
C 1.8932089864 0.9378503019 0.2114784982
C 1.6757982732 0.3488943276 1.4078210314
C 0.585153606 -0.5970940239 1.3658105393
H -1.8237206491 1.1532354629 -0.4396881784
H -3.1410757509 0.015612486 -0.1883833695
H -2.0061995591 0.3485273966 1.123591143
H -1.3239401059 -1.1013208356 -1.4912921792
H 0.7952003745 -1.6820764944 -0.30681747
H 0.2949357819 1.1624906852 -1.174268491
H 1.5555688386 0.0849510153 -1.7329066853
H 2.6223407616 1.7205076101 0.0187624864
H 2.213014754 0.6034762716 2.3138749481
H -1.5327115075 -1.8596273442 0.0803157409
