11
0
C -1.3379370966 -0.122898915 -0.0400002986
C 0.1341489158 0.1978013866 0.123125284
C 1.7650548307 -1.5251499133 -0.3184089742
O 0.9075162153 -0.6687412558 -0.757959141
C 0.4393745034 1.5871973286 -0.2335788169
N 0.657079703 2.6820184773 -0.4924915919
H -1.6396489399 0.0137289779 -1.077605632
H -1.5199448467 -1.1562582593 0.2535396741
H -1.9345173174 0.5364026173 0.5901293338
H 0.477538452 0.0163175073 1.146791756
H 1.7916525804 -1.4265899515 0.8019364068
