13
0
C 1.3917994298 -1.3325848196 0.12421564
C -0.4804250181 2.5545828145 0.1443397828
C -1.1948542106 1.2998238729 0.1173186141
C -0.5562654299 -0.0314679773 -0.1985419625
N -1.1697194274 -0.8656216329 -0.9175447418
O 0.6644999931 -0.1433210067 0.363641262
H 0.8634476219 -2.2048669411 0.519030106
H 2.3385718412 -1.220351226 0.6461094474
H 1.581508719 -1.4704298305 -0.943760248
H 0.5879784768 2.3077926155 0.2887998709
H -1.2841818553 1.4105682724 1.2380968375
H -2.2164696706 1.3284386882 -0.2591262452
H -0.6510714698 -1.7226878293 -1.0828823633
