15
0
C 2.1396691072 0.3461097387 0.300357671
C 0.8684836666 0.7007830651 0.1751177333
C -0.176688688 -0.1036835437 -0.4823901722
C -1.5807992199 -0.0766501572 0.0640630688
C -1.2805002114 0.5877765017 -1.2387202062
H 0.2373764159 -2.2836001973 2.3502381975
H 2.5075334547 -0.5951302466 -0.094355225
H 2.8564578514 0.983927916 0.8016008162
H 0.5403125773 1.6543974378 0.585721858
H 0.1618716453 -1.0516069715 -0.8851598502
H 0.5289353479 -1.671856471 2.0386319189
H -1.7665836673 0.5516305911 0.926004184
H -2.1396202316 -1.0027457369 0.0557981012
H -1.2616035713 1.6699988299 -1.2667292546
H -1.6349594769 0.1230802441 -2.1490048404
