17
0
C 3.1889005624 -0.180673979 -0.1401647038
O 1.8608134306 0.0840089932 -0.5006191478
C 0.9376068087 -0.4185406877 0.4420382665
C -0.4512173221 -0.1795722525 -0.0405341203
C -3.092138337 0.350805767 -0.8528900228
C -1.2875970803 0.6099871556 0.626416806
O -2.5634077025 0.9133096998 0.3273892968
H 3.4506570866 0.2935451231 0.8157513215
H 3.8300402696 0.225538507 -0.9214911648
H 3.3761132081 -1.2597572681 -0.0512200951
H 1.0897880359 0.0644804507 1.4190409554
H 1.1171510498 -1.4958709229 0.5827593778
H -0.7405796901 -0.6692397107 -0.9622053034
H -2.5202752771 0.6696499747 -1.7298481547
H -3.0901860661 -0.7428458327 -0.8013504442
H -4.1157183732 0.7094871703 -0.9348141651
H -0.9852126033 1.1086508123 1.5415942979
