11
0
O -1.0047566188 0.6057482547 -0.1960514916
C -1.2201691172 0.6981416017 1.122534761
N -0.3002317757 0.7159972487 1.9790248595
C 0.3550143998 0.4846071963 -0.6128404966
C 0.84032597 -0.89107608 -0.5315660565
C 1.2474418449 -2.0148197279 -0.4889227469
H -2.2935405475 0.7606208101 1.3083775439
H -0.6794904061 0.8009492176 2.9142344797
H 0.3665195987 0.8217222808 -1.6487386894
H 0.9878771706 1.1361356091 -0.0083653664
H 1.6122744815 -3.0136304112 -0.4419527964
