13
0
O -2.1383939624 0.0687815081 -1.272225186
C -0.2551832624 -0.6676156374 1.5207063723
C 0.3477745654 0.4640966097 1.175906075
N 1.0567882638 0.7301630043 -0.0006960166
C 1.1526899332 -0.0556611907 -1.1057099126
O 0.6488947379 -1.1458718215 -1.2418330103
H -1.462165038 -0.5791007716 -1.4941786833
H -0.2485230442 -1.5487378995 0.8980026878
H -0.7583120119 -0.7085225677 2.4770275221
H 0.3305044758 1.3193851784 1.8414703148
H -2.0865900942 0.1314399758 -0.3157937131
H 1.4902512623 1.6340785927 -0.068330823
H 1.7560631747 0.4199440193 -1.8970596268
