14
0
O -0.6474312304 2.2192309415 0.2747617188
C -1.131374056 1.1164334781 0.2238843169
C -0.9671172716 -1.4463282884 -0.4802376112
C 0.3425880327 -1.0365920551 0.0779979643
C 0.8271751744 -0.171730956 -1.0287903504
C -0.5673072207 -0.0008876822 -0.5206340279
H 1.5904224292 1.8078392358 1.6859605473
H -2.0642877258 0.8774493596 0.7757280905
H -0.9945150637 -1.9870550381 -1.4232726943
H -1.740606539 -1.7262058772 0.2279146001
H 0.6777824789 -1.0678050878 1.1017855647
H 0.9567019991 -0.6111388462 -2.0149986949
H 1.5319098547 0.6115947493 -0.774718847
H 2.1871311382 1.4874460671 1.9992664232
