15
0
C -1.4643839648 0.0908944518 0.4679119994
C -1.423006007 0.9039896942 -0.8085207753
O -0.2452303 1.3332155348 -1.1417746877
C 0.9802263906 1.1191722842 -0.3826998871
C 1.3919340367 -0.3337518888 -0.2892891657
O 0.7130017841 -1.0529868334 0.7035166198
C -0.6633192051 -1.2157092811 0.4472007995
H -1.1273692459 0.7043440023 1.3153944686
H -2.5110051105 -0.1544069697 0.6505421491
H -0.8102280594 -1.7299631312 -0.513523773
H 0.8681812522 1.5565085352 0.6114580359
H 1.7291204157 1.6840018031 -0.9364198267
H 1.2749020219 -0.8099431952 -1.2736107982
H 2.449488228 -0.3725083936 -0.02025715
H -1.0298482364 -1.8735176126 1.2348979915
