14
0
C -1.0851291571 0.1942533242 -0.1124280249
C -1.7454755825 1.4791894144 0.3667993886
C -0.0408320497 -0.3636471416 0.7605082819
C 0.87540628 -1.1879298988 0.0377089456
C 2.2756529734 -0.690935237 0.2402483594
O 1.8728106366 -1.9103323966 0.76125139
H -0.835580083 0.2356883269 -1.1847092666
H -1.8072334549 -0.6434931336 -0.0209450544
H -2.6285825981 1.7185540656 -0.2285139754
H -1.051413389 2.3173635804 0.2863385556
H -2.036531002 1.3876054577 1.4132338694
H 0.6622167322 -1.6194975282 -0.943590801
H 2.9182808924 -0.7146660111 -0.6361194563
H 2.4631988018 0.0950871779 0.9646007882
