12
0
N 1.8680930455 0.8854924881 -0.1756537359
C 0.6474064724 0.2204718588 -0.0432574126
C 0.3188823268 -1.0788544219 0.0404187636
N -1.0801695068 -1.1438545335 0.0679353439
C -1.6362772112 0.1090511477 0.0007234038
O -2.8095545559 0.4181209997 -0.0203756413
N -0.5346790571 0.9477588943 -0.0431390157
H 2.6213321302 0.2516714849 -0.391487886
H 2.1078089313 1.4344292006 0.6386301491
H 0.9426207203 -1.9529445708 0.098132672
H -1.6424413098 -1.9726945648 0.0710553604
H -0.6141969859 1.9276820168 -0.2424480012
