13
0
C -1.5973965316 0.5947334931 0.0930892841
C -0.5677277401 -0.5256732091 0.1863916607
C 0.7278587477 -0.0949302485 -0.4438499905
C 1.7123809151 0.6665030115 0.3493578029
O 1.855819254 -1.0048519371 -0.2199366931
H -2.5361521693 0.3017322365 0.5635221642
H -1.2316707183 1.4922811947 0.5951660805
H -1.8117353093 0.8502033757 -0.9472775349
H -0.9420346231 -1.4307896496 -0.3024567716
H -0.3755978445 -0.7576351349 1.2392140235
H 0.6494549943 0.0414602243 -1.524692914
H 2.4112489148 1.1262006216 -0.3644345549
H 1.7233961104 -1.4378509782 0.6306064432
