16
0
C 1.8382099446 -0.2951248961 0.2702054518
C 1.1114110593 0.7924534457 0.9943255975
C -1.2720920548 0.0463665056 -1.7585869658
C -1.6289616757 -0.805252639 -0.5793332633
O -1.2138540935 -1.9163356468 -0.3903473217
C 0.1556446559 0.6012675599 1.8922327141
H 1.7312171907 -0.1825001299 -0.812386864
H 2.9090028249 -0.2551847476 0.4864566874
H 1.4620590081 -1.2801027365 0.5462929952
H 1.406294698 1.8122504859 0.7546922393
H -0.8202359684 0.9747999502 -1.3998342763
H -0.5861957059 -0.4792333217 -2.42029492
H -2.1813330107 0.3202382016 -2.3000801161
H -2.3281793289 -0.3397297281 0.1456231921
H -0.3286087475 1.4335942876 2.3889422788
H -0.169463796 -0.3975525907 2.1654745713
