18
0
C 2.1504696951 -0.2762507836 0.3320845041
C 0.9249722694 0.5388679035 -0.0163029253
O -0.2978311877 -0.1334247274 0.3414944739
C -1.6801715086 0.342181109 -0.4722794623
C -1.5389462071 -0.371881981 -1.7905079998
C -0.5692196602 -0.1568030009 1.7433438332
H 2.0831374844 -1.2708575592 -0.1100079495
H 2.2955815008 -0.3781520209 1.4078035599
H 3.0342648142 0.2182305982 -0.0746791247
H 0.9275118236 1.520655792 0.4687122275
H 0.8532545957 0.6829503995 -1.0924518622
H -1.3990612344 1.4004177848 -0.6166930127
H -2.3672896261 -0.0039832694 -2.4050546778
H -1.6786489831 -1.450986535 -1.6889814438
H -0.6180671733 -0.202953328 -2.376640436
H -0.6872323482 0.8638648919 2.1156513411
H 0.2470141612 -0.6645159014 2.2581011142
H -1.5056344158 -0.6915843723 1.8532658402
