13
0
C -1.6786950518 -0.9995791727 0.23601056
C -0.6547258113 -0.037151888 -0.2251196954
C 1.3814559735 1.0693447598 0.1476794919
C 0.8345849246 -0.3060461903 -0.4157862135
C -0.7031508495 1.308379056 -0.3652302716
N 0.3549719667 1.9889992974 -0.4216454303
H -1.2549840442 -1.6588670842 0.9991270223
H -2.5459510533 -0.4840308898 0.6494601123
H -2.0284720268 -1.6459945503 -0.57482246
H 1.389500315 1.0687631613 1.2418189857
H 2.3705236112 1.352795193 -0.2153227771
H 1.1531625071 -1.1990223222 0.1296826213
H 1.160934539 -0.41544137 -1.4546279457
