18
0
C -1.308121625 1.1759161913 -0.8972699368
C -0.8158660143 0.2151340049 0.1472470388
C -1.5846025849 -0.7579935466 0.6217777936
C 0.5994911155 0.4042735042 0.6284687349
C 1.6308936857 -0.0952575912 -0.3706585427
O 2.9142668926 0.1770337781 0.1616954165
H -0.690064119 1.1386293959 -1.7982934006
H -1.2622758168 2.2027300465 -0.5239177967
H -2.3368996485 0.9601563599 -1.1851242866
H -0.6699769284 -1.8560076289 -2.8763736139
H -2.5994490793 -0.902346644 0.268613301
H -1.2271170532 -1.4413629057 1.3838413313
H -0.7984543923 -1.7188902311 -2.1540708991
H 0.794922093 1.4645997126 0.8166205802
H 0.751388333 -0.1254121081 1.5706822161
H 1.5004574345 0.4051076847 -1.338796949
H 1.4898005619 -1.1718599141 -0.5298522896
H 3.5777421455 -0.1443571085 -0.4496676975
