10
0
O 1.5754612326 -0.2062868472 -0.4265379112
C 1.1609073569 -0.873081438 0.6027555478
C -0.1389272736 -1.5082132172 0.3012164577
N -1.1637342787 -0.7910737233 0.0850927626
C -0.5690342567 2.2959230899 -0.2534959022
N -0.1280861495 3.3496034349 -0.3345686789
H 2.3880069733 0.2638434462 -0.1978311264
H -0.1651049952 -2.5951744903 0.433775577
H -2.0139386674 -1.3468873872 0.0463484589
H -0.9511769415 1.283821132 -0.1722741852
