12
0
O 2.5935836336 1.088858128 -0.3498170286
C 1.7844709102 0.3031178863 -0.102474373
C 0.971519533 -0.7048826139 0.1326674341
C -0.4243285612 -0.6175468477 0.6586236251
C -0.9043863015 0.7845478106 0.8722000825
O -0.2348276176 1.7571963785 0.6572132068
H -0.4817185101 0.2383320663 -2.2647816974
H 1.4043676649 -1.6729869826 -0.0846835038
H -1.1418600798 -1.1019005387 -0.016123104
H -0.5333191943 -1.1422902331 1.6166528776
H -1.940018252 0.8813607823 1.2518171384
H -1.1431492252 0.2542861639 -2.6097126579
