16
0
C 1.3584899142 1.3301174303 -0.3378569835
C -0.0743203625 1.3888196945 0.0545264161
N 1.8292365045 -0.0579399661 -0.4975114063
C 0.8880475556 -0.8496676856 0.2907607001
C -0.3695411269 0.0153198126 0.3477778983
C -1.6523924603 -0.3930491969 1.023447801
C -1.6452605193 -0.3766714393 -0.4492502043
H 1.8451176325 1.8009801462 0.5375399864
H 1.6214470648 1.9628307657 -1.1866510427
H 1.7508254271 -0.3158430179 -1.4724775594
H 1.2810637179 -0.9908555566 1.3039241541
H 0.7361990332 -1.8395822548 -0.1437329437
H -2.1969429641 0.3844334349 1.5405779739
H -1.6232798394 -1.3560479542 1.5179694735
H -1.5548327294 -1.3118755205 -0.9869530272
H -2.1685528479 0.4155143078 -0.9638352364
