16
0
C -1.6577300581 -0.38982951 0.5472597072
C -1.0473817549 0.3858823789 -0.5939162057
C 0.0461437624 1.3782973341 -0.3106556584
C 0.3603021206 0.1096113656 -1.0210483159
C 1.836686625 -0.5497033259 1.1408172704
O 1.1072106513 -0.9135007887 -0.3597491453
H -2.0522605472 -1.3526999513 0.2090657034
H -0.9237786864 -0.5603462841 1.3398721157
H -2.4890375801 0.1667858869 0.9815940474
H -1.7244686344 0.6208023883 -1.4079007984
H 0.1010356437 2.2936809203 -0.8841430461
H 0.3819255745 1.4335794085 0.7168328388
H 0.621307118 0.1314469416 -2.070836577
H 2.5205143815 0.2230248509 0.7521292819
H 2.4617182049 -1.4595691326 1.1386715065
H 0.5003141792 -1.6155194825 -0.1050097245
