11
0
N 1.5984503334 0.6079312359 0.3319178774
C 1.4872667741 -0.1924476289 -0.6342251462
O 0.3965551898 -0.9311267879 -0.8506222821
C -0.6652034874 -0.7223871876 0.0672246128
C -1.3234671835 0.6101046347 -0.1301099807
O -2.1051258233 0.7886605514 0.9032869146
H 2.5000122753 1.0690238573 0.3166502651
H 2.2330816811 -0.4006151884 -1.402725342
H -0.3269963501 -0.8724058334 1.0973694501
H -1.4164322115 -1.4802837412 -0.1779091423
H -2.5747881981 1.6211100884 0.7885307732
