14
0
C -2.1042977837 0.5922719267 0.7019695207
C -1.1558253875 -0.1367327402 -0.1531030176
C -0.7689242965 -1.1488934363 -0.8356783444
O 1.2794853909 -0.8427783465 1.3003691326
C 1.3818007312 -0.2218231063 0.2617925732
N 2.5400890101 0.3881078511 -0.108043571
C 0.2407050982 -0.0480002336 -0.7000123291
H -1.667331528 0.7205023262 1.694219482
H -3.0452790618 0.0514219969 0.7968418319
H -2.3027099347 1.5857016219 0.2950577564
H -0.9132336537 -2.1398972014 -1.2251444019
H 3.3462971581 0.2844565449 0.4808995345
H 2.633790819 0.8493896868 -0.9923927794
H 0.4464994385 0.6031701095 -1.5525363881
