8
0
O -1.6303377178 0.6273474479 0.4349328313
C -1.1438590961 -0.4131525341 0.285552667
C -0.5869288428 -1.5809727174 0.1146753524
C 1.3868491614 1.7881798321 -0.2656561525
N 1.939394156 0.7884581477 -0.3226444665
H 0.8608962507 2.716986435 -0.2117100703
H 0.4774959868 -1.6182615507 -0.0652946265
H -1.1914338983 -2.4733080604 0.153074465
