14
0
O 1.9123426735 0.3155565151 -0.5147195473
C 1.6913668593 0.2220805215 0.8896833755
C 0.6000381134 0.0972491078 -0.0643386011
C -0.2490648407 -1.1208707329 -0.3940370634
C -1.4915931258 -0.2120156767 -0.219945394
C -0.5747695972 1.0343988688 -0.3006566747
H 1.8207591776 1.1498785709 1.4408456747
H 2.0988940248 -0.6676519116 1.3624789163
H -0.1022677879 -1.423795542 -1.4320860933
H -0.1578976539 -1.9940715456 0.2515118162
H -2.2700198682 -0.2989544228 -0.9757851153
H -1.944421098 -0.321813168 0.7652361791
H -0.5377568284 1.4566427021 -1.3061822504
H -0.7373940483 1.8355717132 0.4198737777
