10
0
O 2.0618461847 -1.0707862906 0.7736797494
C 0.4367933328 0.2474698706 -0.2796345047
C 1.2748986569 -0.7493433475 -0.2879324089
N -2.0943944312 0.2428589941 0.811057129
N -1.8474328056 1.0145749515 -0.1173990184
C -0.4542301145 1.1929710829 -0.3895260182
H 2.5837671737 -1.8437642766 0.5563662215
H 1.3718070814 -1.3633087361 -1.1796297875
H -3.118380453 0.1750472838 0.8675260941
H -0.2205856252 2.1755134679 -0.7839474561
