16
0
C 2.6437662001 0.4718841954 0.0103623154
C 1.4300740835 0.590179348 -0.8673621767
C -1.4440894314 -1.4801627718 0.2300879598
C -1.9660299681 -0.0627899664 0.3985812506
C -0.9847255861 1.0142812036 0.0122814306
C 0.2217077669 0.8065554362 -0.4327600487
H 2.3817700335 0.6006938387 1.0600921501
H 3.3894614003 1.2255912426 -0.2536018658
H 3.1150970912 -0.5067644404 -0.1096586219
H 1.5788462663 0.4871608183 -1.9398514969
H -1.1685055651 -1.6761166153 -0.8079397317
H -2.2010341297 -2.2093262322 0.522933141
H -2.2654597615 0.1042482656 1.4388326553
H -2.8769118974 0.0723789689 -0.1942947709
H -1.3216922753 2.0431807593 0.1166247027
H -0.5559132273 -1.6475360501 0.842538107
