15
0
C 2.1453645116 0.1486257552 -0.3838497788
C 0.6621889207 0.202421986 -0.4927074314
C -0.2639391573 -1.0357016357 -0.4400058094
C -1.4423141566 -0.5122730455 0.4515814038
C -1.5383647487 0.9310931482 -0.0388581072
O -0.7449466217 2.0777869873 0.5487008769
C -0.1861532894 1.2134382193 -0.3362159069
H 2.5654148672 1.1428796755 -0.2332784849
H 2.6010123048 -0.2772944363 -1.2821215763
H 2.447737306 -0.4834605344 0.456804544
H 0.2599977236 -1.8761251126 0.0226247253
H -2.3783852128 -1.0624301123 0.3376387973
H -1.152026433 -0.5462571286 1.5042102109
H -2.3662597191 1.2934246638 -0.6347364703
H -0.6139502952 -1.3805964298 -1.418355993
