13
0
C -2.942653025 0.5791955677 -0.0579648608
O -1.7952907008 -0.2256119779 -0.2760759706
C 0.2651829666 -0.4168235271 0.5235497745
N -0.8140117104 0.1438502458 0.6237426172
N 2.4515256039 0.6420135454 -0.9783598898
C 2.5851241913 -0.3702107114 -0.2297045948
C 1.4689427668 -0.9346894066 0.5401704828
H -3.6757719726 0.233846392 -0.7847248014
H -3.3276499257 0.4434280659 0.9549603462
H -2.7163465278 1.633285531 -0.2307670508
H 3.3337276136 0.8851994558 -1.4198845743
H 3.5367869664 -0.8965929676 -0.1006352341
H 1.6401787535 -1.818247213 1.1434287561
