14
0
O -0.0670085223 1.0777980874 -1.9857593436
C 0.1980887712 1.0733946882 -0.815950101
C -0.0273054254 -0.0830911703 0.1081987738
C -0.697632151 0.292684527 1.4439558293
O 0.4961592586 0.0236081936 2.1859716902
C 1.1779066135 -0.4189629831 1.008235376
H -1.0300559966 -1.0994392121 -3.1546921349
H 0.6466242801 1.970888123 -0.3350383806
H -0.4694306878 -0.9163159914 -0.4328737265
H -1.3121294549 -1.7425091721 -3.4078609241
H -1.5212541286 -0.3641324542 1.7338869179
H -1.0147019148 1.3353711498 1.5435146406
H 2.0891124256 0.1578611663 0.8223494825
H 1.4263889325 -1.482246952 1.0494499007
