12
0
O 2.1410136661 -0.6349411996 0.7413839191
C 1.1583758631 -0.160304879 0.2432399504
C -0.0589315657 -0.9730482164 -0.1350183319
C -1.3847351279 -0.2647536614 0.0688354629
C 0.1265327807 2.0874165675 -0.3966239
C 1.1117609981 1.3082534311 -0.081140488
H -0.0017399504 -1.9043568038 0.428193638
H 0.0715826984 -1.2271604109 -1.1928578874
H -2.2054107818 -0.8615000677 -0.3292708259
H -1.5805658851 -0.0687193343 1.123564874
H -1.4216429187 0.6972957567 -0.4634986319
H 2.0517722235 1.8615708179 -0.0076247791
