15
0
C -1.9676401889 -0.7967834206 -1.0226337234
C -0.7712933077 -1.1821595126 -0.5785737026
C 0.2412664216 0.9929165797 -0.5881585552
C 0.6732811832 1.9345530521 0.2174381615
N 1.2411049898 2.799206297 0.8732299356
N 0.3245178757 -0.3807252876 -0.3188877594
C 1.295171413 -0.8184498681 0.6565287819
H -2.7120304037 -1.5429656615 -1.2588440916
H -2.2341421219 0.2427501718 -1.15926144
H 0.6456006462 3.2644965727 1.5559330463
H -0.5653257001 -2.2361697788 -0.4188110086
H -0.2015317056 1.2840139323 -1.5329310061
H 2.265740655 -0.3735862874 0.4331159543
H 1.3890811231 -1.9032419311 0.6080370675
H 1.0160521203 -0.5435108579 1.6824563401
