17
0
O 1.5124174912 -1.9706711363 0.5001207291
C 1.4789259842 -1.0255944243 -0.5588089555
C 1.2606295129 0.4192249406 -0.1829720531
C 0.0189962989 0.712533271 0.6637856314
C -1.2332137588 0.8687257805 -0.1467160795
C 0.4784213864 -2.0858554456 -0.4622263521
C -2.0610451332 1.8990645396 -0.0671319818
H 2.2740372903 -1.1764471558 -1.287730091
H 2.1539449666 0.7397764087 0.361206319
H 1.2333903006 1.0125611559 -1.1019068813
H 0.1801106532 1.6262948932 1.2395716396
H -0.1038579977 -0.0912664488 1.3980006608
H -1.4577392357 0.0753579731 -0.8565296285
H 0.5477632841 -2.9491896338 -1.118325103
H -0.5189997629 -1.8663647573 -0.0936220502
H -2.9534206877 1.9582559007 -0.6782021661
H -1.8789675926 2.7193971385 0.6198123621
