13
0
C -1.2642647288 0.3911476371 0.2823316263
C -0.1853379734 -0.3098836377 -0.5243387531
O -0.750049347 -0.6898257639 -1.7638992405
C 0.9737927025 0.6469310634 -0.7393019988
O 1.9116639004 0.7462779959 0.0014979869
H -1.6269729719 1.2712246878 -0.2523534716
H -0.8737432665 0.7010444375 1.2518838296
H -2.1030885469 -0.2876424746 0.4344936811
H 0.1903251705 -1.1773553508 0.0299598501
H -0.1548593186 -1.2922497303 -2.2135137873
H 0.8813673031 1.2763360988 -1.6508296356
H 1.3471857587 -0.8449126285 2.9531183381
H 1.6186723176 -0.5266683348 2.3348815749
