13
0
N -2.0596926608 0.7778581494 -0.6364120634
C -1.0037804264 0.1859971744 -0.3004942877
O -0.9627800762 -1.1535461501 -0.1949720114
C 0.3721581501 -1.6222513567 0.0426872429
C 1.1626163372 -0.4248817454 0.5625106734
C 0.3570859736 0.7372597872 0.0613405031
N 0.7632037739 1.9233664807 -0.036845252
H -1.9246318651 1.7848159906 -0.6358342652
H 0.0344173484 2.5352396811 -0.4062757337
H 0.7760575691 -1.9994906464 -0.8998257203
H 0.3039498637 -2.4461218301 0.7502897605
H 1.1709676083 -0.4022415708 1.6547853117
H 2.1920754043 -0.389253964 0.2127568419
