17
0
C -2.1823095212 -0.4942750867 -0.5348841563
C -0.9719349842 0.4183605323 -0.4731988989
C 0.3060310047 -0.2358108244 -0.9350854624
O 0.3619036331 -1.378961165 -1.3075563705
C 1.5639762928 0.6212415575 -0.9254247252
C 2.1263422409 0.8937125291 0.4479092206
O 1.6007246533 0.5991787485 1.4846211778
H -3.0731390356 0.0271661374 -0.1830045455
H -2.3629324051 -0.8387629926 -1.5534480852
H -2.0321991554 -1.3765093994 0.0867016843
H -1.1185272867 1.3188585941 -1.0811078301
H -0.7920275825 0.7775748949 0.5454401303
H -0.329824851 -2.0832699139 2.1406024728
H 0.063663284 -1.4498259975 2.1288174956
H 1.3828922721 1.5956277384 -1.3939924215
H 2.3382554709 0.1216011617 -1.5130065995
H 3.1075249696 1.4099994859 0.4430979138
