14
0
C -1.8161940996 -1.3838252815 -0.6560645144
C 0.0212835026 1.4926689596 -0.6054694128
C 0.2810875446 1.6205510015 0.8274034356
C 1.3215411751 0.9841015938 -0.0351179687
C 1.576742022 -0.467942688 0.149897037
O 2.5641656736 -1.0313386113 -0.2241756583
H -1.9538880513 -1.2734312328 0.4197270139
H -2.7685672324 -1.651775955 -1.1103787936
H -1.087662147 -2.1684292271 -0.8553046323
H -1.4732935605 -0.4418329485 -1.089465179
H -0.2776007143 0.9196853155 1.448676096
H 0.3634975441 2.6143944505 1.2536065404
H 2.1738506832 1.5322378439 -0.4259092293
H 0.77407266 -1.0055362208 0.6964862654
