11
0
C 1.5822313781 -1.0523886779 -0.1733440992
C -1.3673320872 2.3249469506 1.9919970526
N -1.4173110567 1.6317211194 1.0557020005
C -1.4833574583 0.8117850856 -0.0476536957
C -0.4912431284 -0.0085692095 -0.3890688375
O 0.6466705798 -0.0992986955 0.3026739348
H 2.4544441739 -0.9803227951 0.4712802593
H 1.8747279841 -0.8311116331 -1.2035509399
H 1.1714933822 -2.0640530403 -0.1148673143
H -2.3876355054 0.8606517696 -0.6348970777
H -0.5945462619 -0.6365888739 -1.2695372828
