11
0
N 2.7480572656 0.4003065304 -0.2706770248
C 1.6554062182 0.7522452787 -0.3316644684
C 0.3164193015 1.2577389449 -0.3622562499
C -0.7714769224 0.5457045093 -0.083100134
C -0.8761052412 -0.9060267487 0.274221932
O 0.2268222103 -1.7100797902 -0.0277155182
H 0.9987987041 -1.4341853097 0.4721527182
H 0.2328815381 2.3111496582 -0.5990350636
H -1.7206558637 1.07384836 -0.0915575328
H -1.7192028897 -1.3270807842 -0.2795809805
H -1.152854321 -0.9667166486 1.3384653219
