21
0
C -1.7443522551 -0.7547679375 -0.8884301131
C -1.7644611508 0.7308823347 -1.0692651421
C -1.7554771527 1.6648657386 -0.1244386452
C -1.7250086608 1.4663148885 1.3587804112
C 2.1025102227 -1.3376347289 -0.1102986893
C 1.6686736977 -0.1388749204 0.6704606842
C 3.3193503098 -1.5335231752 -0.5942039406
H -0.885925179 -1.1912538178 -1.4060862133
H -2.6390548446 -1.2076489213 -1.3235226362
H -1.6923618122 -1.0546075251 0.1577801925
H -1.7871626888 1.0696212554 -2.1018821672
H -1.7705836783 2.7014390749 -0.4515970893
H -2.5936890958 1.9366102668 1.8266764347
H -0.8383431661 1.9372215186 1.791900233
H -1.7186207156 0.4155418802 1.6462266207
H 2.495340577 0.5550102223 0.8291235105
H 1.2742993856 -0.4328426256 1.6469429835
H 0.8671528027 0.3941354359 0.1515025274
H 3.5700745266 -2.4242018805 -1.1574554068
H 4.1110273786 -0.8065469765 -0.443531019
H 1.342230499 -2.0957731069 -0.2859485353
