10
0
N 1.7142567164 -0.0822665971 0.2593993875
C 0.5050855468 0.4645112391 0.328473788
C -0.3725642689 1.4256078452 0.3551454417
N -0.7850003984 -0.0343275496 0.6385340734
C -1.4345050662 -0.7810301538 -0.3412106515
O -0.8888812916 -1.6117125015 -1.0209543584
H 1.7568636147 -1.0442241656 -0.0321733123
H 2.4963629061 0.5049676647 0.0319788994
H -0.6654828235 2.3324583728 0.8487796645
H -2.5217429355 -0.6008661541 -0.3782799324
