15
0
C 2.450447202 -0.7623047541 -0.0141085845
C 1.3050177154 -0.0953375897 -0.0098634836
C -0.0208640865 -0.7421681027 -0.054446387
C -1.2293573191 -0.1908478728 -0.7922697741
C -1.2410549134 -0.2661895646 0.7155577774
C -1.3278120122 1.2458863165 0.7025141822
C -1.3174331782 1.3124568342 -0.629011245
H 3.4024951015 -0.2473130169 0.0196082639
H 2.4797655005 -1.8464409205 -0.0517328225
H 1.3165100572 0.9890687902 0.0285768093
H 0.0306156389 -1.8280113891 -0.1083925246
H -1.8036648161 -0.808598907 -1.4681953828
H -1.8255668233 -0.9468854295 1.3181586457
H -1.2492575719 1.9842320867 1.4899470227
H -1.2281224948 2.1247685194 -1.338707497
