11
0
C 1.0835855962 1.1569861765 -0.3131021108
C 1.1311091285 -0.1572217954 -0.4769525659
O 0.143267979 -1.064947169 -0.2631296794
C -1.152964383 -0.5793477913 -0.0155804441
O -1.3038233546 -0.0100271865 1.2450383018
H 0.2215558333 1.674607636 0.0827760851
H 1.9598105014 1.7390268969 -0.5605812924
H 2.024487122 -0.6614740475 -0.8267409287
H -1.1513415523 -0.6857885438 1.9094461358
H -1.4045407006 0.2003347519 -0.7392896952
H -1.8018401699 -1.4483589276 -0.1503178061
