8
0
O -1.7036429848 -1.5432228855 0.4821679827
C -1.4770857559 -0.3671900244 0.5304734084
C -0.10456749 0.1764143077 0.4040085236
C 0.5152842844 1.4510198124 0.2841145147
C 1.1949681185 0.713835182 -0.8125815527
C 1.165948346 -0.319099447 0.1504969004
H -2.2659588409 0.3850603286 0.6984195381
H 1.8581333228 -1.0104352737 0.606082685
