13
0
C 1.4447351197 0.9315554179 -0.6041266209
C 0.1583736521 0.3689866563 -1.0176257889
C -0.8396014093 -1.5056088161 0.0573758254
C -0.7476228091 0.0280908951 0.0905248989
O -0.4027344012 0.380124407 1.4336039286
H 1.7952805078 0.6887462424 0.4053993139
H 1.1844956102 2.0083225877 -0.5970928356
H 2.2269581059 0.8284423881 -1.3551648135
H -1.2631632299 -1.8528130945 -0.8817921214
H 0.1482186832 -1.951430224 0.1879829752
H -1.4677749257 -1.82049951 0.8898702451
H -1.7426771714 0.4271888801 -0.1510485767
H -0.4321267323 1.33408317 1.52341857
