14
0
C 2.6034406915 0.2639385297 0.2082095299
N 1.1691993436 0.2778089029 0.3997789898
C 0.3512321697 -0.0102225807 -0.660445694
O 0.7468383444 -0.1739633537 -1.7821421366
N -1.0101803376 -0.0440032942 -0.2846160451
C -1.9889726691 -0.4923201983 -1.0979324103
N -3.1831293344 -0.3878041604 -0.5316646341
H 2.8519919956 0.852404671 -0.6727027428
H 2.9945030773 -0.746683066 0.0619896676
H 3.0801572909 0.7127429611 1.0787203449
H 0.8280208937 0.0798347344 1.3236723516
H -1.2178161771 0.3332892814 0.6384991004
H -3.9871382886 -0.6949937905 -1.0459294657
H -3.3632189999 -0.0063966368 0.3938741444
