15
0
C 2.0363412919 -0.5292946886 0.7200349762
N 0.867879592 0.6982538669 -1.0549969882
C 0.903520349 -0.5514995984 -0.2992183804
C -0.4693982473 -0.7163173297 0.2792255074
C -1.2065232121 0.3303897189 -0.118073366
N -2.5085287206 0.6991930474 0.176546291
C -0.3109974023 1.1654650248 -0.9367764704
H 2.0771563022 -1.4739561322 1.2650535612
H 2.9922039463 -0.3717700117 0.220269818
H 1.8798886834 0.276782359 1.4386550061
H 1.1063828526 -1.3456596637 -1.0299081675
H -0.7792852033 -1.542520379 0.9038722319
H -3.0911178241 -0.0365044261 0.5390102846
H -2.9742854582 1.2295780878 -0.5405900606
H -0.6060299496 2.1001011245 -1.4094412434
