14
0
C -0.9544725452 -1.1656064867 0.3650696343
C -0.0366976249 -0.2064471092 0.3560001348
C -0.3670851103 1.2192783748 0.6876779855
C 1.3963697569 -0.4745774091 0.0001544141
H -0.8813842091 0.1881953638 -2.3279779226
H -0.703698265 -2.1913724596 0.1198851613
H -1.9880369623 -0.9571834611 0.6170178731
H 0.2196648681 1.5629488708 1.5443779744
H -0.1184454388 1.8770963447 -0.1505029807
H -1.4240022332 1.3462120438 0.9210572293
H -0.8441317307 0.5679974031 -2.9696723617
H 1.5675847532 -1.5268993272 -0.2255074231
H 2.0605476068 -0.1849193187 0.819413535
H 1.6927141344 0.1176951706 -0.8709612536
