16
0
C -1.6383476328 0.9220439741 -0.5971926061
C -1.3554827258 0.528207962 0.6386379514
C -1.2671537148 -0.9042683418 1.0826028583
O -0.1077165395 -1.1598009791 1.8306862453
N 2.0791264711 -0.881799986 -0.0437284122
C 2.3651775276 0.0532290775 -0.843291383
O 1.5282261782 1.0321768217 -1.1539208385
H -1.7198151492 1.9709219461 -0.8582799335
H -1.823372914 0.2018018563 -1.3885426993
H 0.6759025162 0.8935760604 -0.7014207225
H -1.1722113456 1.2651322615 1.4175118259
H -2.1169580605 -1.1253655966 1.7356743919
H -1.3476830735 -1.5659638318 0.2091581574
H 0.6563216196 -1.0824114285 1.2314823171
H 2.8503424502 -1.5299763464 0.0576569428
H 3.3152733928 0.1688155505 -1.3664450951
