13
0
O -1.9179539057 -1.529256219 0.8994595164
C -1.7478539924 -0.7312282802 0.0193305399
C 0.0086907325 1.6795209724 -0.0718724647
C 0.4308041623 0.382382159 -0.3916026167
C 1.3221693475 0.1236317457 0.8211561184
O 1.8363151385 0.0495228125 -0.4649160993
C -0.4990370464 -0.7224160508 -0.8369896019
H 0.885755878 2.3425284096 -0.0560062773
H -2.4935332795 0.0547407655 -0.1936497531
H 1.7070664 0.916709534 1.4549683451
H 1.0694414234 -0.8077005639 1.3236970657
H -0.7662251276 -0.5458433705 -1.8819382229
H -0.0014597307 -1.6882639143 -0.7559955495
