9
0
C -0.4668473569 1.1939738166 -0.2959179365
C 0.0967270723 -2.104697088 0.218827817
O -0.3120201193 -3.1747630136 0.4232525253
C 0.7180024953 -0.9997348488 -0.0036736976
C 0.7287128042 0.3023826731 -0.2211661124
H -0.4855353332 1.7109961699 -1.2594515597
H -0.397091324 1.9699563934 0.4718138106
H -1.3939001332 0.6392574926 -0.1659899101
H 1.6887598949 0.8014554047 -0.3586009368
