14
0
O 1.9020087755 0.4631169919 0.6435393999
C 0.5073353367 0.2428266658 0.5466189284
C -0.2235615826 1.4834735765 0.060890788
C -1.2166116105 -1.4275859431 -0.2266505769
O -1.9735615595 -1.5218287329 -1.1532031718
C 0.214177309 -0.9825059037 -0.3271058206
H 2.2251554538 0.7627562223 -0.2096624687
H 0.1967941192 0.0219049058 1.5726047048
H 0.0708036869 1.7272979597 -0.9644317531
H 0.0112597262 2.3335427399 0.7015562937
H -1.5597442088 -1.6755890331 0.801837289
H -1.3056878325 1.335761209 0.0629543841
H 0.4507016431 -0.7822255191 -1.3751551593
H 0.8474677436 -1.802746139 0.0262801628
