15
0
C -1.5167926003 1.1114673552 -0.5500913431
C -0.124410614 0.5331047232 -0.5382086627
O 0.4480050741 0.6699102508 0.7545971693
C -0.0276313691 -0.9699263127 -0.7474461092
O 1.1487123348 -1.3180292369 -0.0429125201
C 1.4432380059 -0.3053585628 0.8952576451
O 1.483268675 -0.7653409973 2.1833656575
H -2.1435087998 0.6101563954 0.1893639523
H -1.9698091309 0.9880468215 -1.5357191788
H -1.4910545229 2.1761167872 -0.3179216465
H 0.51042041 1.0518173257 -1.2693569446
H 0.6000158802 -1.0632437143 2.4234700851
H 0.0848611201 -1.2589861703 -1.7928087004
H -0.901142763 -1.4815663489 -0.3244913782
H 2.4405252999 0.0932376843 0.6842809743
