15
0
C -2.8667198121 0.5757918243 -0.5968590224
O -2.5703904107 -0.3089972919 -1.355431772
C -0.1096771023 -0.9363223355 1.0284440064
C 0.6286065664 -0.5561780823 -0.0185486323
O 0.2256530266 -0.5207661069 -1.298197115
O 1.9073996613 -0.1831634741 0.1380655349
C 2.5161516067 0.57933209 -0.8929204319
H -2.1337300399 0.9992008643 0.1106647526
H -0.7383064261 -0.6456396035 -1.3440536395
H -3.8890763718 0.9895918796 -0.5797768977
H 0.3153652545 -0.9034309301 2.0189439106
H -1.0916575481 -1.3611933209 0.882976824
H 2.584146709 0.0145641856 -1.8226926173
H 1.9670326027 1.5060369378 -1.0758974035
H 3.5144492838 0.8139743634 -0.5301584967
