18
0
C 2.4184333283 -0.8292813233 -0.3938934656
C 1.80593609 -0.12025648 0.7703954986
C 1.9246432186 1.1755448876 1.0277030509
O -0.7804039295 0.5049462737 -1.0707055913
C -1.856345408 0.2519778248 -0.187796759
C -2.9734786865 -0.399156954 -0.9709686111
H 1.6405430269 -1.2679331126 -1.0238896651
H 3.0606825621 -1.6463055908 -0.0564305343
H 3.0149621726 -0.1521597824 -1.0064695243
H 1.2105707 -0.7332377175 1.4439182128
H -0.0297486544 0.8125689822 -0.5533813443
H 1.4519567903 1.6269959244 1.8917117495
H 2.5130898336 1.8276136374 0.3899400139
H -2.2114092168 1.1869184285 0.2657981508
H -1.5377907257 -0.4089975512 0.6295731662
H -3.8291829473 -0.6019788247 -0.3243108558
H -2.6337128752 -1.3405944208 -1.4054533262
H -3.2980342791 0.2538367988 -1.7825571658
