17
0
C 2.5453132713 1.140096003 -0.2566639981
O 1.2558162548 1.6927553387 -0.3615307627
C -0.5512462181 -1.3285571706 0.0024290615
C -0.5112319928 -0.6943622567 1.3470555191
C -1.8283936972 -0.8676190624 0.6376885617
C -1.8960822302 0.1169228677 -0.513886037
O -0.6138876045 -0.3368093525 -1.0250232779
H 2.9950022354 0.9487085564 -1.2384323355
H 2.5490741903 0.2018639445 0.3132638686
H 3.1740503386 1.8582830777 0.2708029329
H -0.1684258558 -2.3051516024 -0.2601911992
H -0.3498353456 -1.3770093933 2.1720702451
H -0.0689413828 0.290479605 1.4542374013
H -2.6544094879 -1.4355637023 1.0372899915
H -2.6794464598 -0.1039619094 -1.2402880676
H -1.8880946569 1.1825055185 -0.2715434554
H 0.6737766408 1.0278745382 -0.7575754484
