15
0
C -1.3030981044 -0.5440070607 -0.7221904278
O -0.7090889195 -1.7160213986 -0.1341807665
C 0.1510099222 -0.9119342732 0.6774138894
C 1.571257862 -0.9424794574 0.1743609898
C 2.3847341546 -0.1192218275 -0.3925688824
C 0.0438493069 1.6260559473 -0.0709264767
C -0.6580383573 0.3550515208 0.3400210802
H -0.9267662992 -0.3734234908 -1.7366627962
H -2.3922583054 -0.6076960646 -0.7383854307
H 0.1359379123 -1.2416114929 1.7187849038
H 2.1300751011 -1.8880275283 0.2465694844
H 0.7988842013 1.4399504399 -0.842814471
H 0.5380822094 2.0985634502 0.7793901108
H -0.6680114035 2.3441724103 -0.4836025608
H -1.3619862805 0.5542218255 1.1493293537
