10
0
O 2.3355293823 -0.2631637608 0.1474532447
C 1.0315480129 -0.036479907 0.0544934223
N 0.1637138384 -1.1628394669 0.1377136499
C -0.9963739351 -0.6446662217 0.0189702583
C -0.9126196875 0.8397342223 -0.1453293037
N 0.5049757927 1.1099679 -0.1031855757
H 2.4576645994 -1.2108784501 0.2609451945
H -1.9024049749 -1.2411985338 0.0407714931
H -1.447348467 1.3651019363 0.6535802741
H -1.3578555614 1.1685182815 -1.0907436574
