15
0
C -1.1178925076 1.2050096329 -0.403288108
C -0.2825956416 0.0534975528 0.1050169183
C -1.0345599964 -0.8782529384 1.0260687555
C 0.6869622471 -0.5794219032 -0.874166318
C 1.6480428379 -0.0291161858 -0.1275540789
O 2.9690803468 0.0756161979 -0.0526392226
O 0.9181522817 0.5929208293 0.8219623109
H -0.50579048 1.8882691766 -0.9911175577
H -1.9201113479 0.8250564044 -1.0396138354
H -1.5700119101 1.7518590486 0.4265971346
H -0.3644128041 -1.6378327013 1.4274833815
H -1.4850665117 -0.3267155141 1.8537898244
H -1.8333268346 -1.3781514183 0.4739456568
H 0.6083607588 -1.1861212455 -1.7572408523
H 3.363129562 -0.4078949358 -0.782635009
