10
0
C -0.483822229 0.0309924222 0.714254687
C 0.003623414 1.1978595899 -0.1141492617
N 1.0477613464 1.0342200021 -0.8399197219
C 1.6264815997 -0.1580485899 -0.6222981923
N 0.8157194526 -1.1948337501 -0.8901933916
C -0.2427480745 -1.1729619747 -0.1670729557
H -1.5306458007 0.1339195225 0.9961438604
H -0.5375930338 2.1365247478 -0.152880994
H 0.1124606014 -0.0504455557 1.635297712
H -0.9659602762 -1.977026414 -0.2475777421
