12
0
O 1.5184351513 1.4000605193 0.8636863295
C 1.7788066989 0.5373396348 0.0715189452
C 0.813814974 -0.5384217301 -0.3835495691
C -0.3094164854 -0.6648037569 0.5951424616
C -1.3312637732 0.3801120853 0.3743794934
O -1.9554395259 -0.6141987201 -0.4721259179
H 2.7814155155 0.4839843091 -0.3988593745
H 1.3791419188 -1.4650558975 -0.5100288335
H 0.4788242608 -0.2228700962 -1.3845103399
H -2.3252551054 -1.2946884089 0.1014747539
H -1.9476557682 0.667999016 1.2243015784
H -1.1062938609 1.2395620453 -0.2610575271
