16
0
C 0.1707107974 1.2273992963 1.7953575023
C 0.853654606 0.0237937019 -1.558268335
C 1.2944761571 -1.3388555644 -2.006708606
C -0.7190078958 0.0272468623 1.5425874307
O -1.7744210964 0.3154986576 0.6269109329
C -1.4535613016 0.3942934809 -0.6796754563
N -0.3280670689 0.1256386565 -1.1650673438
H 0.7174416676 1.5147581335 0.8962775321
H 0.8989705382 0.9848841121 2.5717134142
H -0.423637991 2.076765941 2.1352867989
H 2.1732475517 -1.6206588843 -1.4227641629
H 0.5313325998 -2.1213886952 -1.9274059592
H 1.6388362908 -1.2645382092 -3.0402871205
H -0.1380996612 -0.8237117692 1.1713592778
H -1.2294025915 -0.2826921792 2.4539724559
H -2.2833166022 0.7025734594 -1.302256361
