11
0
C -1.9352715644 0.2758469761 0.0713719093
O -0.5593933658 0.5696012723 -0.1576718684
C 0.3081056159 -0.3513835323 0.1521894131
C 1.6605280691 -0.2496281435 -0.0538689005
C 2.2021835471 0.9003520248 -0.6554777375
H -2.2912909554 -0.4498478037 -0.6618927013
H -2.4713060625 1.2127801921 -0.05075935
H -2.0870239201 -0.1042564324 1.08368267
H 2.2190567005 -1.1252401209 0.2861166141
H -0.1120620824 -1.2520663737 0.6089478396
H 3.295507018 0.7554029411 -0.7239488882
