10
0
N 1.9974842301 -0.2630782142 -0.8807292183
C 0.8628983948 -0.184412364 -0.3379223736
C -0.2856862857 0.7078718252 -0.4510919594
C -1.2121677508 0.253729011 0.3941539963
N -0.8056305122 -0.9248346391 0.9862715325
O 0.5245771735 -1.1326956801 0.605864719
H -0.8511234191 -0.971704274 1.9969394668
H 2.1161558621 0.4775637156 -1.561201857
H -0.3493014511 1.5570376596 -1.1093739003
H -2.1960942415 0.63542996 0.6250945939
