16
0
C -0.2389594654 -1.1320726166 -0.2423570576
C -0.6041194701 -0.8143075252 1.2362461529
C -0.7011096293 0.7006631693 1.2927524077
C 0.4272712776 1.218849009 0.8695383458
C 1.409435786 0.7787412543 0.1210020994
C 0.9767740054 -0.3445780396 -0.8156624567
H -1.1223636946 -0.9175743902 -0.8481925615
H -0.0461120204 -2.2029158611 -0.3444158802
H 0.166350956 -1.1877007648 1.9119816066
H -1.5442987309 -1.3019210934 1.5002033045
H -1.6524976824 1.2145263636 1.353139988
H -1.324411587 2.041728461 -2.1781440104
H -0.9587182116 2.0246003471 -1.5278508667
H 2.4607555901 0.9861380948 0.276741233
H 1.8393151158 -1.0087895802 -0.9185306998
H 0.744350761 0.0104831721 -1.822128605
