13
0
O -0.8719951253 1.3005139843 0.0616207889
C -1.1410476125 0.1663296201 -0.2187546822
C -2.1055031821 -0.7524851178 -0.8109574521
C -0.7334805653 -1.2277148832 -0.2369340277
O 2.1611247474 0.1184229184 -0.7811172995
C 2.5356867172 0.9336208907 0.0182320248
O 1.7640683283 1.7256896261 0.7400360728
H 0.8164289147 1.5679243965 0.5145639543
H -0.7437945454 -1.7830830657 0.6936329599
H -2.9986730446 -0.9975247544 -0.2482539949
H -2.2289887141 -0.7446438239 -1.8876506656
H 0.0491183759 -1.5055170057 -0.9324653678
H 3.5954047057 1.1168082147 0.247051689
