15
0
O 2.4652203961 -0.7876729668 -1.037886283
C 1.4025360566 -0.8729993774 -0.1058445487
C 0.8363737549 0.5161389198 0.0717717101
C 0.0500523099 1.1074296269 -1.0855560088
C -1.1273773793 1.1918663781 -0.452334829
C -0.5445490764 0.604912049 0.7831155108
O -0.937799624 0.2793778668 1.8627993959
H 2.8506409377 -1.6573909 -1.1518974288
H 1.751195373 -1.246371769 0.8636846213
H 0.6155467322 -1.5491015704 -0.4667333217
H 1.5945083529 1.1839121852 0.4891606292
H -3.8610109761 -0.8885568785 0.3908976837
H 0.3627615849 1.3579936195 -2.0905237831
H -2.1132951265 1.5354678668 -0.7337092023
H -3.3481293162 -0.7046710503 0.9004158544
