18
0
C 3.1354317878 -0.8114499232 -0.4101608576
C 1.8792559021 -1.0814477287 -0.722611515
C -1.1896710159 0.6824866675 0.4935682028
C -1.6745048937 -0.7319576411 0.696784837
C -1.7730101644 1.3932161834 -0.7026079793
C 0.0295590524 1.1513994455 1.1161040126
N -0.9802605008 1.5172833718 1.7509358753
H 3.6043109279 -1.2338945753 0.4713065589
H 1.1074179233 1.2371591467 1.1692037285
H 3.748261829 -0.1619987512 -1.0248951381
H 1.2676096811 -1.7331004417 -0.1088654651
H 1.4086707003 -0.6613092732 -1.6044726964
H -1.2188248467 -1.1841382747 1.5778412728
H -2.7599633457 -0.748333836 0.8286496285
H -1.4394694684 -1.3542939937 -0.1710500479
H -2.8653073993 1.3975998736 -0.6517338906
H -1.429605914 2.4264035582 -0.7534378108
H -1.4865022547 0.8907581924 -1.6305707155
