16
0
C 2.3434383579 0.114036376 0.9949563176
C 1.3185277149 -0.797658577 0.3527347503
C 0.6995492968 -0.4803583685 -0.9773869217
C -0.0703452297 -0.3265841245 0.045651801
C -1.3705161929 0.0583679555 0.6297490251
C -2.3648988385 0.5657154049 -0.4067458791
H 2.1570279858 1.156047161 0.723957294
H 2.3153547575 0.0383534842 2.0856234113
H 3.3574856535 -0.1408243072 0.6752745152
H 0.8580205119 -0.4226449699 -2.0403431915
H 1.4530805023 -1.850672603 0.6142934472
H -1.1914235731 0.8184872226 1.3971215034
H -1.7771116359 -0.806563649 1.1644785907
H -2.5648859657 -0.1986534277 -1.1596653208
H -3.312893253 0.8398740698 0.0586617887
H -1.9721890917 1.4450163528 -0.9201631312
