14
0
C 1.7961532215 0.3201699854 -0.4079742967
C 0.6605606142 -0.6828562378 -0.2882829969
C 1.0351129573 -1.8317212705 0.176429035
C -0.7493730569 -0.2918945294 -0.6761817209
C -1.5954212785 0.111153286 0.5314375264
O -0.9906127385 1.1111313425 1.323229422
H 1.5390819566 1.2236478677 0.1462734098
H 2.7370116585 -0.0759458266 -0.0245024845
H 1.9350860118 0.5782538855 -1.4592960734
H -0.6848600032 0.5440247801 -1.3765575901
H -1.245395629 -1.1160656996 -1.1928389636
H -2.5431808776 0.5244314178 0.1809283444
H -1.8188649985 -0.7765560377 1.1332841929
H -0.3147198376 0.6963340367 1.8635171957
