13
0
C 1.3866545813 0.4851103079 -0.3226551889
O 1.1078030624 0.4232865594 1.0935369668
C -0.0747938641 -0.3548672058 0.9052443118
C -1.3161027095 0.4940975969 0.6624008002
O -1.055569069 0.5360003568 -0.7626045486
C 0.1046550265 -0.279957035 -0.6295737699
O 0.1971602003 -1.2542112645 -1.5759631488
H -0.6858755071 -1.5949758388 -1.745414746
H 2.2988757903 -0.0609742039 -0.5736487344
H 1.4241970528 1.5066523667 -0.7049126341
H -0.1223632011 -1.2426615019 1.532677744
H -1.2882302801 1.4846268991 1.1181039921
H -2.2711690826 0.0034079631 0.8666619559
