9
0
N -1.6314522186 -0.4997618141 0.0479967483
C -1.005367302 0.6011112764 -0.0309856445
C 0.4525425199 0.6820233451 -0.0396282513
C 1.2014746007 -0.3869395355 0.1428775642
N 1.8838383797 -1.3404428476 0.4267245512
H -2.6351749322 -0.3450913464 0.0538224843
H -1.5110374675 1.5704358953 -0.0966981866
H 0.9475139633 1.6299719123 -0.2007670671
H 2.1832584566 -1.9616848857 -0.3171371984
