13
0
O 1.2979495808 -1.1531158581 -1.5151134068
C 0.6167585035 -0.5379942357 -0.5075096421
C -0.8662305341 -0.5468857582 -0.7136775444
O -1.5293861723 -0.0765879169 0.4426113822
C -0.8639003332 1.0058513376 1.0126689637
C 1.1538372118 0.0037091912 0.5798983774
O 0.3935097483 0.6457320116 1.5229907786
H 2.2426893545 -1.0886676607 -1.3580215805
H -1.2059540651 -1.570635291 -0.8807350217
H -1.1366906461 0.0480086367 -1.5968768201
H -0.7221666731 1.8023178122 0.2652482925
H -1.461192027 1.3535045089 1.8520290268
H 2.2105110519 -0.0148247775 0.8175921945
