12
0
N -1.967102362 0.1862645299 -0.1907586354
C -0.6158949562 0.0231784194 -0.0649097049
C 0.3462689632 0.9647083672 -0.1339705296
N 1.6112461727 0.2583604626 0.002105907
C 1.3562217492 -1.2639891673 0.1822367268
C 0.0081234658 -1.2871598497 0.1224517715
H -2.3491616591 1.1076492043 -0.0782240056
H -2.5440331485 -0.5539373202 0.1649233228
H 0.3098557804 2.0318307116 -0.2755937104
H 2.1585716326 0.5487435951 0.808943011
H 2.2162218773 0.340555386 -0.8120357206
H -0.5730825154 -2.1979493388 0.2001865678
