15
0
O 2.8277810854 0.2688423552 0.775953594
C 1.7801011393 -0.4505412499 0.1438976881
C 0.4922724012 0.2598456251 0.3956744938
C -0.3356768798 0.6635716615 -0.5564602993
C -1.6502757364 1.3364849619 -0.3273116931
C -1.0530726692 -2.7573434407 -0.5225890526
O -2.1267482929 -2.4917394732 -0.7214999318
H 3.6171025128 -0.2740846255 0.7717346082
H 1.717430956 -1.4682306742 0.5530470273
H 1.9525488238 -0.5371156864 -0.9365533349
H 0.2475438061 0.4328975691 1.4413974595
H -1.6829701646 2.3075001481 -0.8276655486
H -0.0558967734 0.4922797791 -1.5949035611
H -2.4706534391 0.7403970767 -0.7366525487
H -1.8386927692 1.4917979732 0.7356880992
