12
0
O -2.3693989372 0.8545534486 0.8240758857
C -1.7109560927 0.4108446372 -0.279617337
C -0.4268500535 0.0658244449 -0.2732192323
N 0.3238298167 -0.4812120746 -1.3730215211
N 1.6497808753 -0.5923233764 -0.8504783048
C 1.5761025451 -0.098596851 0.4441160147
N 0.4140121089 0.2288781149 0.8460076108
H -1.7308962582 0.8977145239 1.5450109887
H 0.0131804446 -1.4209610362 -1.5830728484
H -2.3315450218 0.3452170003 -1.1618865594
H 2.3348036559 -0.1438625959 -1.445481006
H 2.476387917 -0.0286462357 1.0419183092
