14
0
C -2.028831223 -0.0943219342 -0.3212228391
C -0.7360237504 -0.5464039769 0.3337768709
O -0.1717987099 -1.5401753825 -0.4905466246
C 0.1993682603 0.6183517923 0.5720658529
C 1.4154551411 0.6807379733 0.1171689299
C 2.6307333015 0.7135328838 -0.3461624647
H -1.8172671335 0.3512427514 -1.2942948249
H -2.6892552343 -0.9498390343 -0.4651410388
H -2.5427460136 0.6409886016 0.3002465246
H -0.9753026915 -0.9741097862 1.3199374714
H 0.7498956145 -1.6603515612 -0.2480927973
H 2.8464186481 1.1390086969 -1.3195786069
H -0.1848104219 1.4387009157 1.1721380215
H 3.4626812126 0.3269730602 0.231686525
