11
0
C -1.8721702788 -0.5211479012 -0.1662203414
C -1.1110933196 0.3652822568 0.7042854435
C -0.4800835415 1.0919762821 1.418741862
O 3.7888392204 0.2659675289 -1.467410244
C 2.7964346884 -0.0776372672 -0.9700973274
N 1.7892199361 -0.5512131557 -0.5078502595
H -2.4998609899 -1.1880062721 0.4255145789
H -1.2005754415 -1.1291136321 -0.7745547926
H -2.5122615108 0.0575340039 -0.8327425195
H 0.0611046548 1.7450983551 2.0624749025
H 1.1159765824 -0.0748401985 0.0786716974
