16
0
C 1.3822976849 -1.1328804163 -0.0234120789
C 0.6075929668 0.1585438411 0.023698135
O 1.5524789667 1.1991913417 0.1726494098
C -0.4174341364 0.4436302353 -1.102728692
N -1.5067237246 0.5854931439 -0.0937827537
C -1.7537865585 -0.5987860353 0.813903573
C -0.5733231777 0.2551559482 1.0255719576
H 0.7100309164 -1.9848791341 -0.1176975291
H 1.9683930374 -1.2435553131 0.8895092185
H 2.0669782389 -1.1297765042 -0.8733473974
H 1.1009631212 2.0072222028 0.4273930396
H -0.6388256519 -0.3472127417 -1.8192017423
H -0.202967132 1.3781754272 -1.6217842933
H -1.5228550905 -1.4972701685 0.2331552546
H -2.1556337705 1.3567540179 -0.0964214703
H -0.4771096901 0.9102151549 1.8909043691
