13
0
C -1.4814352206 -0.0316018225 -0.1978628853
C -0.1369935357 -0.0560967674 0.5040822878
N 0.8388742685 -0.876722938 -0.2103201966
C 1.5891545424 -0.3662956968 -1.1404318095
C 0.4446376072 1.3377596604 0.7086944484
O -0.2307765032 2.3250103544 0.7566640328
H -1.9036468419 -1.035566661 -0.2656340635
H -1.3586389147 0.3705547313 -1.2041699017
H -2.1739546046 0.6074652895 0.3477443145
H -0.2487983741 -0.4778513809 1.5123701298
H 0.8432027243 -1.8594317776 0.0515988623
H 2.2093058572 -1.1817622807 -1.5492336623
H 1.5370009952 1.3664822895 0.8724804435
