14
0
C -0.8644831858 -1.3727135875 -0.148501621
C 0.2943490141 -0.9973735714 0.674303154
C -0.6417421776 2.1735958563 0.2930732038
C 1.5322303452 -0.8524980799 -0.1046326451
H -0.8213468014 -1.1475756074 -1.2238856593
H -0.8660050101 -2.4703580012 -0.0311546541
H -1.8116877931 -1.050977296 0.2866091697
H -0.3739166361 1.5014612297 1.1094672002
H -0.4436859988 3.2027261364 0.5888067167
H -1.6998792201 2.0584931589 0.0618214162
H -0.0497072015 1.9328514714 -0.5896760223
H 1.97628006 -1.8566622643 0.0110343727
H 2.2517394012 -0.1802113965 0.364785122
H 1.4362582041 -0.6502100485 -1.1812257535
