8
0
O 0.5968019773 1.0172985295 0.0537010269
C -0.8153038894 0.9773663208 0.0446954001
C -1.305962845 -0.2840061883 -0.0197000196
N -0.0829838716 -0.9987838285 -0.0499610837
C 0.9692690165 -0.2181291642 -0.0063488602
H -1.2672327951 1.9522734503 0.0907077593
H -0.0284511221 -2.0024203894 -0.0998172569
H 2.0137835294 -0.4847027303 -0.0149709659
