17
0
C 1.8289006494 0.2212650178 -0.0121431056
C 0.5451705363 -0.4236504495 -0.4087479883
C 0.2196288395 -1.8560783973 -0.6677386037
C -0.5562494841 -1.065145301 0.3317818047
C -0.8404832477 0.1221592254 -0.5322136428
C -1.2000777016 1.4589473893 0.082717666
O -0.7015108565 1.6656901264 1.3894543579
H 2.4530265433 -0.4795790948 0.5470591784
H 2.3938914454 0.5424349631 -0.8901212777
H 1.643807416 1.0917107224 0.6179817854
H -0.2566560812 -2.1553137482 -1.601452949
H 0.9237523336 -2.5821245348 -0.2716459424
H -1.1415839538 1.0571806271 1.9849001613
H -0.6957132029 -1.2322711341 1.387553111
H -1.3819546717 -0.0562564022 -1.465551445
H -2.2908649993 1.5746821737 0.0622526338
H -0.7826355647 2.2649218167 -0.5252377439
