13
0
C 1.4490521811 0.0661283214 0.5341753834
O 0.0231516556 -0.0642804389 0.4147208056
C -0.3833507286 -0.1114106303 -0.9251767016
C -0.9578392763 -1.1953578112 -1.3951200419
C -0.6879195936 1.3027697737 1.0709874455
H 1.7537171056 1.0305649478 0.1240490507
H 1.9119937532 -0.768053421 0.0094931047
H 1.6723080259 0.025229662 1.5969483057
H -0.2138597044 0.8238145188 -1.446856123
H -1.2902879442 -1.2236904659 -2.4233658254
H -1.1225931621 -2.0612252873 -0.7673772744
H -1.7109108804 0.894521606 1.1053618277
H -0.308393432 1.152765225 2.0963640434
