13
0
C -1.3816678434 -0.5644073344 -0.1183030913
C -1.0753431273 0.8173598943 0.504722247
C 0.298790373 0.5888178624 -0.0452867977
N 1.521816708 1.2559741442 -0.5595086392
C 2.1270006617 0.1323978934 -0.447964138
C 0.9797424499 -0.6939162813 0.1062671089
N -0.0921900177 -0.5585395127 -0.9113351416
H -2.2293363402 -0.5850613064 -0.7973198631
H -1.4610053655 -1.3905696295 0.5896286108
H -1.6026044304 1.6125210475 -0.0208366626
H -1.1664809741 0.956524095 1.5810437827
H 3.1424065962 -0.0945463593 -0.7565203598
H 0.9630183098 -1.444071513 0.8840689439
