16
0
N 2.2531787901 0.4754095787 0.397191751
C 1.0069259762 0.5945426815 0.2897215049
C 0.5112836701 -1.8345937981 -0.2482473711
C 0.0028114501 -0.5353378224 0.3467108781
C -1.2155041774 0.0903720019 -0.3313784343
C -1.0544414241 1.5614048954 0.0239432846
O 0.3592404877 1.7750014598 0.1051967418
H 2.7126841491 1.3809708834 0.3420024386
H 0.7294867467 -1.7107909439 -1.3109288541
H 1.4313682433 -2.1442499572 0.246133779
H -0.2223705558 -0.6879360365 1.409317423
H -0.2312105725 -2.6271582845 -0.1383115236
H -1.1511964312 -0.0480720787 -1.4138936016
H -2.1641611706 -0.3223198783 0.0104814251
H -1.5012927714 1.7987499021 0.9944320138
H -1.4513944102 2.2474543969 -0.723100455
