14
0
C -1.3358420113 -0.4131438901 -0.154398325
C -0.9432074885 1.023314917 -0.025736176
C 0.1973511484 1.514086321 0.4348936272
O 1.289657606 0.8123156243 0.8208747938
C 1.7378290166 -0.2566219874 0.005265176
N 0.9618425663 -1.4625652498 -0.06546435
C -0.294452906 -1.4959301131 -0.1271260622
H -2.0698105607 -0.6540097674 0.6259791484
H -1.8870019003 -0.5645916809 -1.090955154
H -1.7093706951 1.7494106468 -0.2719528402
H 0.3296717427 2.581855055 0.577952429
H 1.8861763234 0.1061939893 -1.0192929373
H 2.7069657156 -0.5159161589 0.4279737611
H -0.7306805573 -2.4952217057 -0.2156640907
