13
0
N -1.7650194704 0.6543263277 -0.1549968477
C -0.3970395318 0.2885517723 -0.0526908657
C -0.0061046757 -0.979173657 0.0444769964
O -0.6947198857 -2.1243627494 0.068817191
N 1.4008871016 -1.0366060691 0.1327200718
C 2.0154940024 0.1338464128 0.1013662334
C 0.8611115457 1.1105055798 -0.0239459582
H -1.9674328601 1.1497814216 -1.0130053899
H -2.0658210575 1.2356316919 0.6158267629
H -1.6272037109 -1.8816879948 -0.0037994695
H 1.8865040297 -1.9168547896 0.2116646443
H 1.0230419197 1.7155508418 -0.9236086024
H 0.919000593 1.8130142119 0.8156972336
