13
0
C 1.6089264043 0.6260474285 -0.4335280878
N 1.1630203814 -0.0596310945 0.7580759566
C 1.5023397951 -0.1234761766 1.9069529545
O 1.7396735985 -0.2613542412 3.0383518625
C -2.1765234697 -0.2272088063 -0.5237497828
O -1.1637940524 -1.1739142984 -0.7809544911
H 1.5111807562 1.7055721105 -0.3124455287
H 2.6483556555 0.3813360573 -0.6541159234
H 0.9850478632 0.3055291244 -1.2651129166
H -2.7700868406 -0.4860743207 0.3603514506
H -1.7732204541 0.7838293488 -0.3876202692
H -2.8387252789 -0.2164971065 -1.3893091832
H -0.5296893584 -1.1388070252 -0.0578480415
