11
0
C -1.7870533664 0.2761165417 -0.1573232584
C -1.6424429163 1.3522239656 0.5817929667
O -1.4855072484 2.2917157545 1.2271633477
N 1.9062766304 -0.9293636704 0.8699557465
C 2.0223064341 -0.8242114034 -0.3791531667
O 1.1648673763 -0.3046303927 -1.2755154685
H 0.3535647367 -0.0118897251 -0.8298145636
H -2.0282681703 0.3910476184 -1.2039366341
H -1.8571202255 -0.6857661387 0.3289363145
H 1.0255792208 -0.5487606457 1.2130467142
H 2.9193015287 -1.1842579042 -0.8786499983
