17
0
C 2.5218528656 -0.0395542719 -0.923934181
C 1.3554702929 -0.0987695048 -0.0439707621
C 0.3393915042 0.9049505212 -0.3867412065
C -1.0897492862 0.5601761183 -0.0041698302
O -1.5344375093 -0.621121756 -0.6951786126
C -1.7458144199 -1.3178625999 0.5454994685
C -1.3286708838 -0.0929242312 1.3626859426
H 3.4411016896 -0.4257705749 -0.4843273627
H 2.6923392721 0.888842408 -1.4882997833
H 2.201736147 -0.803631344 -1.6589187209
H -0.4295547786 -0.2270755691 1.9598959042
H 0.687055603 1.7429824748 0.2496517387
H 0.3812052368 1.2823231233 -1.4213482834
H -1.7482382393 1.4062706651 -0.2294856728
H -1.0842164378 -2.1826659882 0.6352813777
H -2.7863155952 -1.63549625 0.6534775553
H -2.1194544609 0.3649337796 1.9536584283
