14
0
O -1.2154485533 -2.1366586916 1.3204669903
C -0.7516474747 -2.1274980715 0.1064961154
C -0.5526714564 1.1967664465 -0.2913657253
N 0.5090504879 1.9539309737 -0.911552695
C 0.688565894 0.5171379171 -0.7632011437
C 1.6278828377 0.0512784047 0.2957754792
O 1.9849137256 0.7657201155 1.1986606795
H -2.1721835323 -1.998071642 1.4019852165
H -1.6149156355 -1.9502870645 -0.5839231326
H -0.6835939619 1.2758754165 0.7830783551
H -1.4600709246 1.1002998823 -0.8766123011
H 1.0626744716 2.4091618003 -0.1899638855
H 0.6615264199 -0.0692918215 -1.6737897274
H 1.9771657021 -0.9905376656 0.2097927747
