19
0
C -1.3257547385 1.0241461459 -0.242506042
C 0.0354405898 0.3625221705 -0.4468694679
C -0.0974358064 -1.1663285048 -0.6288012579
O 0.9462706627 -1.7808829998 0.1446683791
C 1.3887129125 -0.827547065 1.0060570374
C 0.7652855254 1.0072634274 -1.630442965
C 0.9104942826 0.3884176457 0.7905116526
H -1.9643160988 0.8848096607 -1.1191747933
H -1.2130105903 2.0990306447 -0.0837518956
H -1.8390750252 0.6061507589 0.6250382096
H -1.7528004687 -1.6562888214 2.7816317648
H -1.0548474909 -1.5280502726 -0.2404239731
H 0.0125232417 -1.4911487554 -1.664201241
H 2.0884960108 -1.1776000663 1.7518720701
H 1.7135970388 0.5014779702 -1.8218498315
H 0.9799714154 2.0589344067 -1.4272615585
H 0.158172767 0.9574849636 -2.5388831437
H 1.1627185706 1.2763226346 1.3505423952
H -1.1375757984 -1.3483619435 2.4931686602
