16
0
C 2.2801921034 -0.3366611449 0.7137898348
O 2.4397723752 -0.6768881965 -0.5244997029
C 1.5922266856 -1.1788582925 -1.3625172174
C -0.6609483509 1.2406233856 -0.3096834037
O -1.00857 0.042958761 0.3383116165
C -2.3775886837 -0.032083399 0.6364657228
H 3.1607748657 0.0579313028 1.1899927611
H 0.4147877071 1.2180905928 -0.4906569994
H 1.318161312 -0.4833082261 1.1863333677
H 1.9881095687 -1.3750920024 -2.3438171937
H 0.5807854132 -1.3825718837 -1.0378021155
H -0.8981685985 2.1123020203 0.3135849375
H -1.1846162282 1.3401230147 -1.2687845093
H -2.6845402062 0.7780625508 1.3107117428
H -2.9885615858 0.0215324997 -0.2741371477
H -2.5553703773 -0.9882519826 1.1269893065
