10
0
O -1.2360623061 0.7160637968 1.6861740244
C -1.4157276027 0.2533776591 0.475237887
C -0.0767381563 0.2147017132 -0.1785884092
C 1.175238623 -0.3503606255 0.4343337271
N 1.3868542841 -1.1718752426 -0.5269441804
N 0.1527726646 -0.8638385852 -1.1734014112
H -2.0951522919 0.7810054733 2.1174085973
H 0.0777775601 1.2210664579 -0.5927251943
H 1.7490657858 -0.22067502 1.3408893536
H 0.2980674394 -0.577370627 -2.1358913943
