15
0
C -2.348916566 -0.5582695159 -0.1353430068
C -0.8583541581 -0.3210520484 -0.0831941221
O -0.6556486238 0.9089521901 0.6400759111
C 0.4136006102 1.6949892461 0.6041996248
N 1.5633454886 1.1717088653 0.1660753372
C 2.0635897842 -0.1904779924 -0.046029025
H -2.7587156161 -0.636070374 0.8721830998
H -2.8492413363 0.2653729768 -0.6450102605
H -2.5650343368 -1.4847079066 -0.6708497411
H -0.356714852 -1.1500860297 0.4192211529
H -0.448207587 -0.2152726638 -1.0899096922
H 2.2873795095 1.8679036086 0.1776996698
H 1.7111007986 -0.6305281316 -0.977893864
H 1.7920726882 -0.8406772239 0.7844902372
H 3.150763197 -0.1424740003 -0.0868533209
