12
0
C -1.7728825225 0.5468467447 0.0786395779
C -0.3479011118 0.2805636602 -0.0054645264
C -1.2119365185 -0.8859171197 -0.0536509024
O 1.8167033929 -1.2405464861 -0.655262628
C 1.8764419536 -0.1466107223 -0.1818212519
O 3.0202805861 0.38567648 0.2569470664
N 0.8035581412 0.7849557981 -0.0285747356
H -2.1834123878 0.8441495544 1.0363639157
H -2.2595612762 0.9880793253 -0.7832311626
H -1.2494701274 -1.5296801683 0.8170480584
H -1.3106608593 -1.3988856857 -1.002282128
H 2.8302947297 1.2847146193 0.5481507166
