12
0
C -1.6964589845 -0.152538439 -0.0457487577
C -0.2073322658 -0.1502511545 -0.0117809196
C 0.6967534745 -1.1556531925 0.19761233
C 2.0367435203 -0.6411681818 0.1711025208
N 1.8215597179 0.6565645506 -0.0232911086
N 0.494876429 0.9931455001 -0.222972619
H -2.114060047 0.4631363294 0.7544888536
H -2.0737334469 0.227870578 -0.9967366058
H -2.0648720341 -1.1680754795 0.086355195
H 0.4351525632 -2.1923772476 0.3450517811
H 2.5148642874 1.3560602971 -0.221479094
H 0.1694777856 1.9188784398 0.0030504242
