16
0
C -1.1660299131 0.6954591036 -1.6170018756
C -0.2576173961 -0.2224695943 -0.8419081111
C 0.7888962539 0.6882741679 2.5604303589
C -0.2463985935 -1.669296371 -1.260361094
C 0.4854459289 0.2133324134 0.1375786671
C 1.2221058239 0.6447551755 1.1217900723
H -1.1114108456 1.718277661 -1.2477543705
H -2.2033363987 0.3555036045 -1.5467915175
H -0.8976271281 0.6937908986 -2.6774536825
H -0.2292643518 0.3170130153 2.6737694469
H 0.8291406113 1.7090131132 2.9487357267
H 1.4487378553 0.0790493027 3.1831601975
H -1.2497544469 -2.0982200348 -1.1840403669
H 0.0642313282 -1.7630257939 -2.3050391034
H 0.4293486603 -2.2602408365 -0.6442469359
H 2.2261006118 0.9985891748 0.8965605882
