11
0
C 0.0281366455 -1.5805377394 0.3516058739
O -0.4832253089 -1.1566459309 -0.898752157
C -0.7704605035 1.5881777542 -0.0671547485
C 0.3835673375 0.9543947257 0.0646014838
C 0.6160026815 -0.4452063728 -0.365508247
H -0.612867875 -1.3776867736 1.2048676969
H 0.5309927183 -2.5435256978 0.3473405166
H -1.6244368912 1.0993819142 -0.5211073864
H -0.8914805104 2.6100289765 0.2690820274
H 1.2421082257 1.4531596298 0.5056022783
H 1.5546084804 -0.6207004858 -0.888806338
