14
0
C -1.8909854335 -0.0088306221 0.3102419374
C -0.4002582475 -0.0634577133 0.3724587451
C 0.2522672701 -1.095438129 -0.5109695786
O 1.4971733349 -0.4085084676 -0.9028928567
C 1.2334426771 0.8597651022 -0.8027101416
O 0.1674046167 1.1515279082 -0.214550103
H -2.2986091296 -0.8770226348 0.8321556826
H -2.279443269 0.876377407 0.8148648438
H -2.2943023729 -0.0263199946 -0.7198299525
H 1.5979755816 0.488240677 1.8427303281
H 0.5353325061 -2.0195532785 -0.0124259049
H -0.2809514668 -1.3358317561 -1.4577230751
H 2.2700397241 0.8297966092 1.8535657841
H 1.9503802086 1.6030758923 -1.1196447091
