12
0
O -2.1431895878 1.6948676138 0.2799752969
C -1.2038605863 1.0749528293 -0.1275233348
C -0.6050595363 -0.0725249607 0.6170878148
C -0.1844189028 -1.262334297 -0.2069334511
N 0.7762533243 -0.4027753043 0.4066913806
C 1.7300555629 0.3769662619 -0.217741644
O 1.8606392353 1.55828612 -0.0553196107
H -0.9947499991 -0.2247445528 1.6170279685
H -0.7379314567 1.299001279 -1.1086885889
H -0.3198255421 -1.1923726162 -1.2828442348
H -0.2927892578 -2.2533653141 0.2167957435
H 2.4159637464 -0.230135059 -0.8332933398
