15
0
C -2.5406812759 0.3321164758 0.3178538464
C -1.2583566798 0.6359908545 0.1873366938
O -0.4702027903 0.9422779529 1.2413787498
C 0.9297891453 0.7815842811 1.0896018006
C 1.5393519087 -0.568437074 0.8731191106
C 1.548547363 0.2628009939 -0.1213717226
O 1.8404996964 0.5725558552 -1.3792058832
H -0.2988591036 -1.8884491045 -1.4347497599
H -3.009428888 0.2703039991 1.2912149487
H -3.1425551532 0.1630633416 -0.5632226935
H -0.7824490224 0.6986889143 -0.7893630996
H 1.4026926848 1.5299419118 1.7207121178
H -0.0354850635 -2.2061750711 -2.05629921
H 1.767305006 -1.5204527805 1.3163309988
H 2.2226581725 -0.19641555 -1.8143688974
