10
0
N 1.1796824215 -0.0162072571 0.0064661251
C 0.3666073453 -0.6277249298 -0.8884767673
N -0.4198671915 -1.5311275756 -0.7600382617
N -1.4314319406 -2.240065049 -0.7351375047
N -1.1296677858 3.625692215 1.417023629
C -0.6890541593 2.6649755442 0.9788181208
H 1.9474606746 0.5028321965 -0.3805944785
H 1.3855321205 -0.4807473807 0.8794523278
H -1.1547992526 -3.2022927849 -0.9489607932
H -0.2596572321 1.7666540213 0.5750086026
