15
0
N 2.9335897916 -0.0895164339 0.0031833313
C 0.3730912116 0.3180390454 0.6608211806
C 1.7671971795 0.4637376188 0.3625928149
N 1.2502724034 1.5636425776 0.6830861404
C -0.6726700505 0.1814839004 -0.3951762894
C -2.1134288516 0.3608845121 -0.0219065416
C -1.597246734 -1.0022673121 -0.3698110071
H 3.7041184244 0.5111865916 -0.2324782682
H 2.9416176234 -1.0261536555 -0.3520485108
H 0.0767389347 -0.0667821754 1.6392566455
H -0.3733228641 0.5491659623 -1.3703425226
H -2.3324602559 0.5689030902 1.0181859629
H -2.7662101637 0.8598126401 -0.7254666325
H -1.8963816148 -1.4404720347 -1.3127888002
H -1.4730120339 -1.7162233266 0.4355084967
