9
0
N -1.7903994158 0.8776054987 -0.0464182658
C 2.0861005646 0.1245388855 -0.0381361303
C 0.8895884021 -0.2466084417 0.3147641858
N -0.194555866 -0.6488947222 0.6915264538
C -1.4174567786 -0.3163005431 0.0849801004
H -2.7199003326 0.9146271943 -0.4553128154
H 2.4798929036 1.0661807972 0.3162816253
H 2.6802365166 -0.4984731869 -0.6908532703
H -2.001263994 -1.2001034819 -0.1804148835
