17
0
C 2.8452856377 1.2532465673 0.6438895903
O 1.5143388256 0.8964503201 1.0357506899
C 1.0070778283 -0.1671973347 0.495136947
C -0.3522949054 -0.3913333745 1.0823568895
C -1.315758468 -1.0244526101 0.0844272932
C -1.677590774 -0.0581286706 -1.0314587077
O -2.5845776356 -0.6060664526 -1.9661799722
H 2.8084261696 2.2536013248 0.2143534473
H 3.2085873937 0.5268457841 -0.0812113044
H 3.4651158932 1.2594251356 1.5395913285
H -0.8423582499 -1.9126980218 -0.3466752305
H -0.1585473369 -1.1054243388 1.8953375813
H -0.7707454796 0.5126773816 1.5434550025
H -2.2303653489 -1.3502277461 0.5854467998
H -2.1728369405 0.8237287572 -0.6169892069
H -0.7600772793 0.2877105087 -1.528755121
H -2.1663883301 -1.3590022302 -2.3877420268
