11
0
C -1.8540091906 0.1653171918 -0.0405159541
C -0.3608412368 0.0477114287 -0.0465992022
O 0.2250169286 1.2474912038 -0.1870836026
N 0.3494710619 -0.9935506969 0.0608336538
C 3.2583992592 0.2214327631 -0.0637549529
O 4.0384233109 -0.5744105104 0.06583003
H -2.1907883673 0.6224526709 -0.97190507
H -2.1660290138 0.8181649673 0.775706034
H -2.3256929123 -0.8082758181 0.0738010525
H -0.223774945 -1.8224734405 0.1593014441
H 1.1832311049 1.1023172404 -0.1794234328
