18
0
C -0.8788017435 -1.5444667298 -1.0289198034
C -0.2302133685 -0.2344210498 -1.2155606554
C -1.344606828 1.0800248484 1.8014503692
N 0.9140583561 0.002935431 -0.6013690148
C 1.6126660933 -0.8070653972 0.2197995836
C 1.5168754452 1.3112804709 -0.7774720483
O 1.0379962608 2.1727334602 -1.4327244239
H -1.0889464786 -1.7362685594 0.0345717428
H -1.8151837179 -1.5988467305 -1.5801423744
H -0.2294981054 -2.3676840508 -1.3622921258
H -0.6278735487 0.5693749684 -1.8113716533
H -1.0977138524 1.9811651167 1.2412195474
H -2.2249326272 0.6155815584 1.3594279261
H -1.5528691724 1.3409249606 2.8381410753
H 1.2624199013 -1.8049787311 0.4099234605
H 2.5437219131 -0.4431273856 0.6163698549
H -0.5055307496 0.3841482455 1.7647368955
H 2.4631672224 1.3890775741 -0.225972356
