11
0
C -1.6878637123 -0.2348125856 0.0084508166
N -0.9061631345 0.0638397663 -1.1940320848
C 1.5447696075 1.3002781388 0.8407040864
C 2.1969105677 0.300009639 0.8900357032
N 0.818842161 -1.4194982242 -1.7485327201
N -0.0186472117 -0.7392566343 -1.4392243741
H -1.0561055461 -0.2471034821 0.9004480462
H -2.4259089172 0.5562389925 0.1097320734
H -2.2095521634 -1.1917726241 -0.0785825306
H 0.9679703977 2.1938987619 0.7867754214
H 2.7782949512 -0.5918037484 0.9211225623
