12
0
O 0.7907897018 2.6239267288 0.9072105378
C 0.4195838429 1.5252375848 0.6452464213
N 1.2862884054 0.3981983218 0.4277182116
C 0.7477845987 -0.7395792934 0.0368966191
C -0.7403642323 -0.4233344407 0.0261698482
O -1.2000453989 -0.1018249486 1.3354692275
C -0.9589561898 0.9649327692 0.4333595527
H 2.2774835686 0.5061051137 0.5942274216
H 0.5064675126 -2.7672698056 -1.9227284609
H 0.2011958551 -3.0825299603 -2.5275386972
H -1.4257499141 -0.9850694161 -0.5941012442
H -1.7879447501 1.6024323467 0.1584105628
