14
0
O 1.0750480448 -2.3095931077 -0.7399777985
C 0.2863375119 1.3387079126 -0.412517913
C -1.029913875 0.6061663714 -0.4963582177
C -0.9784563786 -0.2349716694 0.7865738745
O 0.4000939631 -0.2227287667 1.2271147196
C 1.0091699809 0.7986351372 0.555690446
H 1.044679607 -1.83135076 0.0967342437
H 0.6030695569 2.1396693412 -1.061419336
H -1.0823459698 -0.0171510046 -1.3937645702
H -1.894595818 1.2711138206 -0.5053922311
H -1.272947855 -1.2730291416 0.6446891245
H -1.577389358 0.2088152851 1.5855325543
H 2.0123854966 1.0265313199 0.8865706697
H 1.3907640931 -1.661696738 -1.3719465658
