13
0
C -2.5377812739 -0.185941251 0.6007121729
C -1.1382859414 -0.1121652929 0.0880248675
C 2.3855767452 -0.2029006411 -1.045637132
C 1.524273875 0.4673496094 -0.3323401696
O 3.2860786965 -1.0653019708 -0.48026057
N 0.8386971535 1.2465845745 0.3272960683
N -0.495979385 0.8825942928 0.6082648891
H -2.8298219622 0.5933194123 1.3225756495
H -2.6812817155 -1.1666397189 1.0605307504
H -3.2213017181 -0.1578939231 -0.2507675907
H 2.4081307101 -0.0561768573 -2.120421459
H 3.3787729379 -1.8316098054 -1.049335443
H -0.8862691217 1.5548985715 1.2655689666
