12
0
C -2.1499199087 0.006931973 0.3014634537
C 0.1670565201 0.0581770403 -0.5754112923
C -1.0554119829 -0.3669827581 -0.6584628105
O 2.30780828 -1.3580253588 0.4460571431
C 2.3140094758 -0.196194864 0.1939454704
O 3.3099343848 0.6219495687 0.5329575299
N 1.3039378721 0.5212113101 -0.531321631
H -1.791006257 0.6958486464 1.0647367842
H -2.9771594072 0.4839459506 -0.2272403887
H -2.5399014752 -0.8820792395 0.799831328
H -1.2666435091 -1.051676744 -1.4727830592
H 3.1130120073 1.4989094754 0.1857584725
