17
0
C 2.6942683538 0.2189976065 1.2635686202
C 1.7809709826 0.4765103894 0.338243797
C 0.4038013475 -0.0492852696 0.3388314865
C -0.2096687674 -0.359052615 -0.9983150851
C -1.5671967178 -1.0263050222 -0.8052233292
C -2.0386062689 0.2133911478 0.0069160401
C -0.6700207496 0.8495473757 -0.2086975307
H 3.6898652671 0.6402085278 1.2057198854
H 2.4767250063 -0.4220509276 2.1111817314
H 2.0404356587 1.1256238461 -0.4964255128
H 0.1565526213 -0.6938534647 1.1799231527
H 0.3988065457 -0.4001909242 -1.8921910448
H -1.5555756464 -1.9864855563 -0.284773099
H -2.1212274451 -1.1386672212 -1.7363123092
H -2.8429424706 0.7497525447 -0.4950374819
H -2.3243240649 0.0457868457 1.047752518
H -0.4755086521 1.8986107171 -0.3896938384
