13
0
C 1.7900917071 1.0982476788 0.6315383704
C -0.0219000148 -0.8632064273 -0.5960869849
C -1.5175673923 -1.0617863879 -0.7113827277
N -1.6809157961 0.2676199198 -0.0347664861
C -0.2802063417 0.2714799482 0.0734244277
O 0.3817759744 1.2485767464 0.6795490321
H 2.1406534407 1.1103568255 -0.4040667515
H 2.2139490144 1.9401061027 1.1729088944
H 2.0926150527 0.1595477099 1.1043078541
H 0.8438173092 -1.3451295144 -1.0157353065
H -1.9361644456 -1.8851780395 -0.1285798527
H -1.945665523 -1.0584921952 -1.7152031963
H -2.1929329852 0.2578936331 0.8395757271
