15
0
C -2.2143415515 0.2792561634 -0.2202845494
C -0.8800445134 0.363292982 -0.1732178769
C -0.16388349 1.5608847491 -0.6219027163
N 1.0867796936 1.3001055971 -0.4368609433
C 1.2600523344 -0.0324110314 0.1208340907
N 2.6175492332 -0.3671588198 0.3474287407
C 0.0780563808 -0.6540461115 0.3049008994
H -2.8310964565 1.0909653405 -0.5929305262
H -2.7085410725 -0.6219507892 0.1230321299
H -1.9969926426 -3.3843910078 1.1616325125
H -0.5245855025 2.4956199735 -1.0287598234
H 1.858015614 1.9209257605 -0.6405481217
H 2.7572753582 -0.6144041766 1.3175475579
H 2.8765496102 -1.1753614347 -0.2019713839
H -1.4721779955 -2.868747195 1.0102970103
