15
0
C -2.3587392987 -0.1603218133 -0.1728111547
C -0.898206838 0.0811810059 0.0072158431
C -0.2257017132 1.3841486081 -0.1844087096
N 1.0349744119 1.3583753051 -0.004099304
C 1.3670922047 -0.0063539 0.3909465779
N 2.3930348385 -0.5325353498 -0.4897149763
C 0.075521124 -0.7692678818 0.3338318019
H -2.611760718 -1.2029446103 0.0186712791
H -2.9494927348 0.463332832 0.5021906305
H -2.6690395414 0.0828587416 -1.1920246928
H -0.7369256749 2.3023642376 -0.4651180747
H 1.684972359 0.0671110042 1.4464705609
H 3.1694998166 0.1151520894 -0.5189251186
H 2.7369799161 -1.4200354635 -0.1482293484
H -0.0229781518 -1.8268318053 0.5408256854
