11
0
N -2.0275846786 -0.0169440947 -0.31046579
C -0.6934634641 -0.3614379282 -0.3096301384
N -0.3374620421 -1.492200224 -0.7734854339
N 2.5720821495 0.2578392859 0.8900156697
C 1.443740614 0.4935506466 0.5168582758
C 0.1837725274 0.7067894442 0.2222258333
H -2.3479670732 0.601980595 0.4129696633
H -2.6441871732 -0.7844658876 -0.520949889
H 3.3201712568 0.3709217997 0.212514641
H 0.6716097895 -1.5874799667 -0.7970516322
H -0.2042549059 1.7072913299 0.3666798003
