14
0
C -0.0032420223 -0.9536507141 -0.5209263279
C -1.2350426192 -0.2655253061 -1.0073847382
C -0.8689541366 -0.1489174443 0.437623213
O 0.7624945411 1.0002314735 1.9048131422
C 0.2438886311 0.8844393514 0.6040932185
C 1.1253320567 0.0658470494 -0.3824499043
H 0.1151643586 -2.0264302582 -0.5936758925
H 0.9591512278 0.1192446896 2.2332481027
H -1.1509481506 0.5993812791 -1.6589857796
H -2.0810562208 -0.9064720887 -1.2214639711
H -1.5262806192 -0.480324634 1.231217694
H -0.0094884653 1.9016300252 0.2987613344
H 1.4526533749 0.5562113807 -1.3022032247
H 2.0014910436 -0.3232608033 0.1378161334
