12
0
O 1.5675290252 0.0416032634 -0.4022218075
C 1.3559169666 -1.1222674575 -0.9172318583
C 0.6910867527 0.4964377096 0.6311816881
C -0.4691514919 1.3097333743 0.1961802656
N -0.6167798009 -0.0078833776 0.7604826465
C -1.2587349748 -1.0834544554 0.1430427797
O -2.1983027134 -0.9398223149 -0.5882538706
H 2.1626083376 -1.2078759733 -1.6748895886
H 1.2745060838 0.6945224952 1.5220709064
H -0.6140191474 1.3992734202 -0.876511328
H -0.8200050093 2.1402516231 0.7968000806
H -0.882543028 -2.052674307 0.4853340862
