10
0
N 1.1316621091 1.5139073506 -0.127988114
C 1.446833483 0.3220030798 0.1584686033
C 0.4472768314 -0.7309181792 0.4132347144
C -0.8438485915 -0.5300235791 0.379699151
C -2.1231961903 -0.3344752524 0.3482576084
H 1.9630419088 2.0822532399 -0.2652536965
H 2.4870612308 -0.0134873054 0.2376428111
H 0.815234668 -1.7257534917 0.6426925536
H -2.6618231705 -0.0313007534 1.2385452849
H -2.6815682787 -0.4513741089 -0.5732069164
