13
0
O 0.2271116777 -2.7719395961 0.8477093203
C 1.4278885085 0.2791418437 0.2355010566
C 0.1795542482 0.7856385861 -0.5060133273
C 0.2769769721 -0.5815370222 0.0255356179
C -0.3482195271 -1.7203238861 0.2020245028
C -0.6789929397 1.7577016831 0.1249444483
C -1.3922208796 2.5671758688 0.6461167355
H -0.3941437331 -3.4991375463 0.8887337628
H 1.6009547035 0.6767777035 1.2287890604
H 2.3197030177 0.1257900905 -0.3615432867
H 0.2894093368 0.9105529483 -1.5787758999
H -1.3600391485 -1.8671490121 -0.1641108415
H -2.0240772363 3.2850793385 1.1123838506
