14
0
C 2.3922464848 -0.2805992863 0.432604559
N 1.6744589339 0.6145405657 -0.4421378684
C 0.4143701589 0.7079100986 -0.4026712434
N -2.0126426086 0.0688897925 -1.9761526267
N -2.4894191896 -0.0219996726 -0.8673679956
C -1.7813343064 -0.2079788273 0.3809660837
C -0.4978083995 0.0692336427 0.5689319893
H 3.0279037882 -0.9187298271 -0.1840002448
H 3.0584646201 0.3100995413 1.0656689065
H 1.7750812105 -0.927791156 1.0650302814
H -0.054532487 1.3627948974 -1.1339887059
H -3.5171800435 0.0289058896 -0.7058831169
H -2.4171779363 -0.5863344233 1.1742213678
H -0.1094222256 -0.1382482351 1.559162614
