17
0
O 2.6671942896 -0.1180499796 1.1321448721
C 2.1617379976 -0.5734863953 -0.1061215035
C 0.6451647569 -0.5990668715 -0.0230237639
C 0.0381461088 0.7619757264 0.1288076945
C -3.0309682503 -0.2146391426 -0.86529017
O -4.0891212474 0.342766416 -0.8796888215
C -0.7544172417 1.1324184003 1.1221260829
H 3.6207619155 -0.050724008 1.0752480371
H 2.5286240523 -1.5827295626 -0.331999601
H 2.4745665439 0.0883482281 -0.9254312341
H 0.3456714788 -1.2400032979 0.8103271367
H 0.2726348119 -1.064479751 -0.9435351992
H 0.2801365123 1.4820799563 -0.651058922
H -2.7598100603 -0.9430185422 -0.0775814712
H -2.2624518114 -0.0362623132 -1.6413604054
H -1.1743877333 2.1294498221 1.1721047518
H -1.0047401233 0.4507013146 1.9283505164
