13
0
O -1.4520641235 -0.9813262454 -0.0155255845
C -1.5046363623 0.3886571125 -0.4063481341
C -0.3789513979 1.0891614159 0.3473574855
N 0.5845319287 0.1796990126 -0.3322730099
C 1.498581016 -0.6003096311 0.4759105573
C -0.5067733538 -0.5006181364 -0.9732645608
H 0.9898511824 -1.1947695515 1.2458206139
H -2.4303721136 0.7807282986 -0.8014792465
H -0.4340621091 0.9809281925 1.4337795728
H -0.2128865597 2.1318439933 0.0741923556
H 2.2106640093 0.0672741576 0.9635449979
H 2.0637149005 -1.2738983561 -0.171083566
H -0.421902017 -1.0478172625 -1.9027184813
