14
0
C 2.2964452121 -1.1951814768 0.4849529991
C 1.6705361551 0.0703869684 0.4371825309
C 0.4020487235 0.1028289385 -0.0448369372
C -0.6068857306 1.193808742 -0.2567378577
C -1.7030951317 0.0972951821 -0.180298787
C -0.5898059594 -0.9667799962 -0.3800253076
H 3.3744277445 -1.0462708266 0.6784958349
H 2.1365567755 1.0266825455 0.6911007179
H -0.6078547737 2.011096237 0.4651920255
H -0.5260097889 1.615992911 -1.26167442
H -2.1523883264 0.0393967842 0.8100422424
H -2.4916616967 0.138942371 -0.9291952096
H -0.5016356039 -1.2722277916 -1.4248528601
H -0.5578415993 -1.8591365887 0.2419720283
