13
0
N -1.6735875948 1.0570132492 0.1620936608
C -0.7159507558 1.7919125081 0.6448764939
C -0.195100712 -1.3697952453 -0.4642868699
O -0.2381407749 -2.6668088745 -0.1263659449
N 0.9030466884 -0.8529717321 0.0705652669
C 1.340919306 0.4812464705 -0.0663397651
C 0.6088244631 1.5942340631 0.0720446197
H -1.5256871335 0.3210576878 -0.536893558
H -2.591003645 1.118173777 0.5761640553
H -1.0153263131 -3.045644073 -0.5391350723
H 1.5382614283 -1.4848300603 0.5502283197
H 2.4035498658 0.5593936148 -0.2663575119
H 1.1574461776 2.5175216147 -0.086893694
