13
0
N 3.3928791581 -0.6267153176 -1.0677278164
C 2.5019128314 0.0592973828 -0.7989206575
C 1.3895007884 0.8369870734 -0.4600527528
C -0.1390746651 -1.0194308961 0.147221105
C -1.518830988 -0.63870673 0.5918135454
C -1.0127997637 0.8042209436 0.3503262633
N 0.2750045672 0.2120141484 -0.0532035104
H 1.3805121697 1.9114040968 -0.5113247741
H 0.4314454825 -1.9238099996 0.0015000211
H -2.3410803863 -0.9473600621 -0.0563564476
H -1.7746226867 -0.8647695242 1.6286791671
H -1.4807963917 1.3497922006 -0.4673278571
H -0.910590116 1.435336684 1.2314067139
