19
0
C -1.360843346 -1.2019550834 -1.0300981884
C -0.241710242 -0.6462863242 -0.1930298048
C -0.6752486066 0.1752048082 0.9948534971
C -1.0163669701 1.612931972 0.599967259
O 0.0899985175 2.2995936091 0.0576015743
C 1.0325191328 -0.8612947191 -0.5225291956
C 2.2628853009 -0.404344518 0.1998206965
H -2.0471264646 -0.4132706076 -1.3514795155
H -0.9863363643 -1.707934125 -1.9199163354
H -1.9536463663 -1.9167438491 -0.4518759716
H 0.4469108396 1.7589484883 -0.6534251383
H 0.0971771864 0.2005029557 1.7641240313
H -1.5643677405 -0.2778914662 1.4450976704
H -1.32230102 2.17625524 1.4829713595
H -1.8610223913 1.6213872336 -0.1026224628
H 1.219112667 -1.4583164922 -1.4131621733
H 2.0432105562 0.2301084338 1.0564727247
H 2.8445283075 -1.2631930719 0.5459063647
H 2.9131190037 0.1653235161 -0.4693223919
