17
0
C -1.4127627486 0.3810058696 0.4630109656
C -2.4135449157 0.0398893015 -0.3435465725
C 0.0046710629 0.3704315702 0.1157163361
C 1.0251526393 1.207601107 0.835245259
C 2.3049751189 0.8757426658 0.1378507829
C 2.0603780389 -0.0234986644 -0.8244728203
C 0.6363712157 -0.3435903731 -0.8356330291
H -1.5352851172 -2.7042791493 0.1950665341
H -1.6503572867 0.7078591964 1.472772529
H -3.4401727476 0.0560421696 -7.30615e-05
H -2.2417746833 -0.2558649846 -1.372595836
H 0.7871173376 2.2757143128 0.7741240839
H 1.0641677802 0.9594474793 1.9023672546
H 3.2634493461 1.3053395577 0.392357446
H 2.7916432836 -0.4581724669 -1.49274604
H 0.1734645197 -1.0645928914 -1.4967712987
H -1.4027338439 -3.4304587001 0.0857564669
