10
0
O -0.3077606994 -1.5330300728 -0.3948389424
C -1.548275503 -1.2531806972 0.0348081011
O -1.9139086756 -0.2343100067 0.5297316772
C 0.7879546645 1.8176940409 0.6414355566
C 0.6740536389 0.604913069 0.1942487854
C 0.7136148836 -0.6018180732 -0.2934390865
H -2.1802538949 -2.1322443843 -0.1489863794
H 0.5991119197 2.6698991871 -0.0013476744
H 1.039035607 2.0116684344 1.6779959655
H 1.626605059 -1.0167894974 -0.6976310032
