12
0
N 1.9084671032 -0.0069066978 0.1562925221
C 0.6373101171 0.1144752074 -0.5232034722
C -0.181481876 1.3526366557 -0.1550371353
N -1.3176757132 0.84212139 0.2462643478
C -1.4310499225 -0.6016211689 0.2430691029
O -2.4025718295 -1.2136145826 0.5882139814
N -0.2309398264 -1.0037773751 -0.2129223609
H 2.5499580172 0.6926888815 -0.1937100397
H 1.7925779694 0.163355672 1.1485386533
H 0.832001806 0.167668687 -1.6004223684
H -2.1013602908 1.3836964381 0.5816605811
H 0.0161134454 -1.9714461075 -0.306484812
