10
0
N -0.7961878654 1.3262678491 -1.1305406607
C -0.3551209439 0.3017736471 -0.5967400225
O 0.8594332283 -0.2869579393 -0.836543476
C 1.6894124283 -0.5361929253 0.2182259742
O 1.5020653945 -0.1826691052 1.3328276804
C -1.8579631194 0.0427038944 1.1381573022
O -1.1215346221 -0.52100308 0.2052075602
H -0.0952356802 1.7781244095 -1.7082358903
H 2.5564382466 -1.0938567071 -0.1536593694
H -2.3735070668 -0.8454900432 1.5643479021
