10
0
N 1.5165926585 -0.6514410447 0.8630267638
C 1.0550996035 -0.1678070969 -0.286331325
N 1.0114634185 -0.2834066073 -1.5331765755
N -1.547704256 0.3567572762 0.5510775501
C -1.0697680566 0.7778656993 -0.5383006267
N 0.3233477537 0.9238840962 -0.7055103858
H 1.0066584057 -0.3787107009 1.6865476684
H 1.9317888254 -1.5670546582 0.8575022206
H -2.5630836301 0.3871330535 0.5417698777
H -1.6485827226 1.1268129827 -1.3957981679
