12
0
C -1.3642052994 -0.3728768844 -0.0618604528
C 0.0131098151 0.2306418964 -0.2081123218
N 0.2873123651 1.0688528283 -1.2845530329
O -0.0094267226 1.6430223092 0.2282608031
C 1.1247427921 -0.5735215609 0.4331785284
H -1.4194328247 -1.2571527363 -0.7001388406
H -2.1100704528 0.3426615601 -0.4020361724
H -1.5761911061 -0.67776249 0.9652084003
H 0.8829467491 1.8730485835 0.5160094685
H 1.2291596123 -1.5113804668 -0.1156287623
H 0.9117888209 -0.8170459016 1.4767258518
H 2.0736652512 -0.0402471373 0.3546045307
