11
0
C -1.9461084993 0.1304016365 -0.1730914235
C -1.4056143133 -0.9237849197 -0.7343968379
O -0.9226399333 -1.8346243143 -1.2521914929
O 0.6900842912 -0.615961762 1.5644062766
C 1.6007246797 -0.0311205108 1.0243199652
N 1.4581555245 0.8475384912 0.009591588
H -1.6820402487 0.3485303053 0.850720673
H 0.5380040116 1.0150567429 -0.3680108857
H -2.7186863824 0.6675389124 -0.7010264826
H 2.6527924827 -0.1686262586 1.3313346624
H 2.2573793874 1.2656836771 -0.4273500428
