15
0
C -1.1967512662 1.1769236841 -0.09576587
C -1.2522487537 -0.3037602381 -0.515679746
N 0.1867597384 -0.2735150216 -0.8684063229
C 1.0372510826 -1.1958512679 -0.1358469849
C 1.3844706366 -0.3959868618 1.1040639035
N 1.0002695856 0.8082052139 1.0844099046
C 0.32776157 1.0380031025 -0.1881464836
H -1.5777827524 1.4212085902 0.8935197175
H 0.5151907562 -2.1283178925 0.0978018627
H -1.6141041484 1.8621661856 -0.8313172601
H -1.9004254225 -0.5511422273 -1.3573369346
H -1.4797390848 -0.9820314231 0.3144062161
H 1.9416835257 -1.4609986463 -0.6948211181
H 1.9308337121 -0.7994778419 1.9529489502
H 0.8737398211 1.8067836443 -0.7401818343
