17
0
C 2.152675653 -0.7168652736 -1.2185952557
C -0.4772528939 0.4600675999 1.606276426
C -0.4721336127 1.6045669986 0.9201498801
C -1.115534171 1.3908020682 -0.3910661781
C -1.5044877613 0.1186512795 -0.4880834011
C -1.2010623503 -0.5974101254 0.8065663447
O -0.5655064687 -1.851018026 0.6980566751
H 2.5107265385 -1.6334416361 -0.7489929251
H 2.9574602097 -0.2919814518 -1.8161969891
H 1.8540907053 0.0030862517 -0.4564868445
H -0.0811976292 0.2830854408 2.596280867
H 1.3043066656 -0.9371493066 -1.8655657602
H -0.0697763707 2.5510477501 1.2560637248
H -1.2439879058 2.1593303725 -1.1415665946
H -1.998142949 -0.358347111 -1.3231211646
H -2.1581665992 -0.7973792284 1.307925227
H 0.29201694 -1.7126936021 0.2877099685
