15
0
N -2.0536767687 -0.187862764 0.3240594764
C -0.6905744549 -0.6665475163 0.3093620074
C -0.0713313168 -1.0946432751 -1.053844028
C 1.179972612 -0.2250242299 -0.7572862245
O 1.5265766914 2.2228607006 0.7296133655
C 0.3858180245 0.3868311172 0.3658371379
N 0.4052392884 1.4552639157 1.0296758535
H -2.7006505422 -0.9069321824 0.614239194
H -2.1414611626 0.5916856476 0.9618338581
H -0.4858435029 -1.4342670672 1.0686250303
H -0.6638286079 -0.6917696278 -1.8739602004
H 0.0924244433 -2.1606260374 -1.205525686
H 1.5082027105 0.4693243384 -1.5295644441
H 2.0439305754 -0.7898425001 -0.4031547559
H 1.4022010104 3.0067454806 1.267865416
