13
0
C 0.6738370995 1.0989999925 1.1502885972
O 0.5856071101 -0.5703831341 1.2912990748
C 0.1867245745 -1.1267468011 0.0099369859
C -1.0898539898 -0.5774385794 -0.5754783256
O -1.4504740208 0.5981239309 0.0990124115
C -0.0802776675 1.1360290453 -0.1168367683
C 0.2394464885 -0.0820240286 -1.0326187512
H 1.7436407611 1.2185077729 0.9330967697
H -0.1540365645 -0.6126556584 1.9104692904
H 0.5202586558 -2.1419618182 -0.1462838496
H -1.8595711684 -1.1808370452 -1.0376478661
H -0.1026631679 2.1154323041 -0.5916669224
H 0.7911148895 -0.1200139806 -1.9590676462
