17
0
C 2.0453849603 1.3183345813 0.4832962287
O 1.4144610486 1.4970157026 -0.7672102976
C -0.4551214257 -1.3325864554 -1.1302010945
C 0.3891702177 -1.6391897887 -0.1458970176
O -0.3822120037 -1.2824125938 0.9287743024
C -1.4325902984 -0.9319687737 -0.0490965274
C -1.888631141 0.4942575611 0.0845729099
H 1.3500279025 0.9510952739 1.2461268132
H 2.8945421029 0.6273005864 0.4206503021
H 2.4233586182 2.2907566463 0.7978503123
H -0.4760276997 -1.4060141243 -2.2035385833
H 1.0314549322 0.6543811647 -1.0310805993
H 1.3793024755 -2.054401222 -0.0098828809
H -2.2530209627 -1.6409080643 0.0831497902
H -2.6274219214 0.7145149006 -0.6887528295
H -2.3576627936 0.6501332057 1.057420485
H -1.053206012 1.1861953998 -0.0278933137
