13
0
C 0.2944053882 -1.1432258781 -0.5014636741
C 1.2043172616 0.0131398273 -0.8214042458
C 0.7370998919 1.152538491 -0.3345295017
C -0.5339191188 0.9448286921 0.4127103005
N -0.7934843124 -0.5035470917 0.2571309177
C -0.4600715029 0.0930986176 1.6437200034
H 0.7755874505 -1.8910829182 0.1311413907
H -0.1052943598 -1.6283431448 -1.3970196973
H 2.141607111 -0.1211033979 -1.3433684795
H 1.2199084244 2.1169262564 -0.4090120306
H -1.3739182094 1.5958571368 0.1716519084
H -1.7355114704 -0.7685188131 0.0127878357
H -1.4348525538 0.1398412227 2.1471522725
