10
0
O 1.4771066424 -1.0893560358 -0.2086226506
C 1.2902074511 0.2963828457 -0.0795573192
N -0.0200870159 0.2917870892 0.0273881515
C -1.0837900516 1.0830413173 0.1669497755
C 0.055250834 -1.1680759048 -0.0886961651
H 2.0444732085 1.0584420865 -0.1356144047
H -2.0466626517 0.609857776 0.2431332368
H -0.9386065469 2.1468198891 0.2363466879
H -0.4233105897 -1.5468234735 -0.9901422712
H -0.2684842803 -1.6850405896 0.813191959
