11
0
N -1.9832959662 -0.4301638776 0.1406707608
C -0.8192358644 0.1176799045 0.1164070475
C -0.1255831306 1.2836768198 0.2632667337
O 1.2954290903 1.106311638 0.0725663502
C 1.5869177188 -0.1214440818 -0.1949829688
O 2.6286251748 -0.6464030826 -0.4106900108
N 0.2871254811 -0.8837353689 -0.1973159589
H 0.1152053071 -1.3199405046 -1.1021548199
H -2.7105741194 0.2413710348 0.3492864376
H -0.4228495893 2.2867161217 0.4929838456
H 0.2915688977 -1.6260726034 0.5007415829
