11
0
O 2.0211680248 -0.3876537444 -0.0108861066
C 0.7155701369 -0.0872742263 0.0046470804
C -0.2990640886 -1.1512511629 -0.264106695
N -1.5908065544 -0.498064565 -0.1676692382
C -1.3464973054 0.729238613 0.1097025827
C 0.0672000026 1.06695987 0.2344990764
H 2.54016202 0.3962254617 0.185510371
H -0.1698088287 -1.5943193474 -1.2558692036
H -0.229045547 -1.9670708628 0.4613025856
H -2.1572547312 1.4409897902 0.2377082336
H 0.481913871 2.0375861739 0.4644433137
