11
0
O 1.2881232969 -0.9291800867 0.6025891836
C 0.2314592169 -0.0849879245 0.9064172286
C -0.0244859073 1.2124185088 0.1148719562
O -1.4083213668 0.7678328365 0.0250102165
C -1.2114241336 -0.4432901236 0.5139414247
H 1.0591288461 -1.455230543 -0.1672069296
H 0.24915736 0.1164617189 1.982089808
H 0.0647108107 2.1803901126 0.6089049075
H 0.4218339495 1.2371144768 -0.878252049
H -0.5696145705 -1.6637807859 -1.8605206986
H -0.0070425019 -1.5232841902 -2.332486048
