16
0
C -1.6594907023 0.1690307777 -0.3393337576
C -1.2192210888 0.9868186624 0.8222963056
O 0.5079479643 -2.4069382234 -0.0432080819
C -0.2071063514 1.8530925688 0.8355987605
C 1.5758641474 -1.4777312705 -0.1008764247
C 0.6030449802 2.1047944005 -0.3166280905
N 1.2651358245 2.3013454606 -1.2357021495
H -2.7368129414 0.2690523937 -0.4876929727
H -1.446638002 -0.8862944297 -0.1461516723
H -1.147905855 0.4582411939 -1.2572901353
H -1.7657228402 0.8545136609 1.7512911641
H 0.5618676703 -2.981712714 -0.8073450343
H 0.0557186087 2.4022463556 1.7306304548
H 1.50706146 -0.8577878045 0.7922239074
H 1.5115139526 -0.8251510547 -0.9775679379
H 2.5505901731 -1.9761959773 -0.0987163359
