13
0
N -2.1701013959 0.2131274517 -0.9514181287
C -2.7774260367 -0.6878309319 -0.3086967853
O 0.274007784 -1.0511977332 1.3521995715
C 0.6995588861 -0.2388865373 0.5805881027
C 2.1066741742 0.3334120938 0.726087311
C 2.7361076967 0.5989603334 -0.5614304477
N 3.2106448137 0.7970626599 -1.5861409283
H -2.7665958587 0.6309935462 -1.6632468769
H -2.2469798277 -1.2162122339 0.4835396033
H 0.0819487721 0.1559160088 -0.2457991634
H -3.8154771827 -0.9788993892 -0.4952413639
H 2.0209137122 1.2781397384 1.2727297493
H 2.7167884627 -0.3454440066 1.3219263562
