13
0
O 1.4733529708 0.7519600342 0.8236403164
C 0.8224354995 0.2572581294 -0.334253404
C 0.2257152682 -1.1718993215 -0.3175545038
C -1.2010212881 -0.6184550475 -0.6195441422
N -1.3357485801 0.3168785805 0.6346570635
C -0.5727902323 0.7855814726 -0.5138223199
H 2.2935569655 0.2691122561 0.9443344374
H 1.4212984421 0.4410703086 -1.2311336123
H 0.3315251453 -1.724582182 0.6203907705
H 0.5915812531 -1.7976415806 -1.1305410518
H -0.8265468591 0.1942838133 1.5025531658
H -2.2638668889 0.6908349782 0.7378784857
H -0.8667486961 1.7330995586 -0.9516452054
