11
0
O -0.4154184217 1.044912337 -1.3559621893
C -0.874812512 0.7145021402 -0.0417380157
C 0.4770961023 0.1896295844 0.3450736197
C -0.1575716301 -1.0654070155 0.8814618121
O -1.3600219486 -0.6187510995 0.1826821147
C 0.8170157407 0.4214463529 -1.0288488214
O 1.5529162414 1.0361807491 0.0344668342
H -1.5150779597 1.4820609118 0.3857242625
H 0.214084359 -2.0190107154 0.5069155772
H -0.3268287021 -1.1062071343 1.9590191604
H 1.3762427309 -0.1069981107 -1.7868303544
