12
0
C -0.7957787035 -1.1402196997 0.9752323491
C -0.6883342893 0.5628568829 -0.8606231551
C 0.0456819313 -0.5381227924 -0.1480093478
O -0.2568309573 1.6652850298 -1.0586665248
H -1.7536673593 -1.5076673734 0.6000825843
H -0.2783544828 -1.9802773291 1.4383837561
H -0.9999745154 -0.4014344435 1.7519699883
H -1.7092999198 0.2932817066 -1.2113462679
H 0.2651302568 -1.309154648 -0.8956987478
H 2.9754222538 2.3434010886 -0.2780881848
H 0.9955239099 -0.146315334 0.2175058752
H 2.2550868757 2.2443139123 -0.4475023246
