14
0
C -1.3850276872 -0.9257289214 0.0865390337
C -0.510499948 -0.9288096039 -1.1595036574
O -0.0425612932 2.4610141669 0.1183014694
C 1.1226925032 2.2469611791 -0.0506339335
C 1.7118162167 -0.3788030177 1.8676803961
O 1.4545999179 -1.1881036611 2.6018189688
H -1.2712872712 0.0066672024 0.6422609547
H -1.1342749788 -1.7527080888 0.7544221077
H -2.4408520376 -1.0231641688 -0.1728638902
H -0.6458739992 -1.8413409931 -1.7434216089
H -0.7457756826 -0.0809375474 -1.8054490869
H 1.9043322277 2.7719782543 0.5305152737
H 1.480204248 1.5125696439 -0.7960306795
H 0.5500817844 -0.8626314445 -0.9031693477
