9
0
N 1.9047792776 0.5082466756 0.026793066
C 0.6870701231 0.1968946682 -0.012773121
N 0.2449253082 -1.1454073808 0.0209818353
O -1.1535762738 -1.0923073505 0.1965323042
C -1.4368933946 0.202907711 0.0328980738
N -0.4651171445 1.0060088871 -0.1132066095
H 2.007149587 1.5143445536 -0.045842816
H 0.635189014 -1.7249274177 0.7517522084
H -2.4919604971 0.4441066536 0.0347910588
