17
0
C -1.8764228118 -0.3478684106 0.0478646188
C -1.4271087273 0.9244104792 -0.6162202297
C -0.4231189935 -0.0399537612 -0.0821423695
C 0.6088884469 -0.8293505366 -0.8731208322
C 1.6354136732 -0.5994262646 0.258234585
C 2.3341081059 0.6165893964 0.4737720066
C 0.5078245618 0.2355293774 1.094845917
H -2.2824736019 -1.135338564 -0.5746956342
H -2.3255349859 -0.2745816095 1.0308448657
H -1.5273474675 1.0011108809 -1.6916528016
H -1.571748465 1.8554747221 -0.0818987206
H 0.3463214632 -1.8781096652 -1.0166693186
H 0.9066540487 -0.3969357365 -1.8289721777
H 1.9713865712 -1.477291548 0.8055915034
H 2.0257497648 1.3338347134 -0.3096015031
H 0.7131083668 1.2921768419 1.3106707884
H 0.3126970501 -0.2621223154 2.0406703022
