16
0
C 2.3265101682 -0.6122728566 -0.0581910934
O 1.1275381912 0.0384583443 -0.4113301542
C 1.1596650085 0.5963972345 -1.7059448093
C -1.9488048217 0.1413118392 0.9153744396
C -3.2135801528 0.1565814663 1.3115501775
O -1.4030749798 -0.8732320655 0.2123123046
H 2.5535438533 -1.4260711364 -0.7565548634
H 3.1652123009 0.0929498078 -0.0497753999
H 2.1943423819 -1.0234038108 0.9411238218
H 1.3431279748 -0.1746367248 -2.4630686268
H 1.9392059244 1.3625855794 -1.7821712294
H -1.2718827201 0.96270424 1.1439516417
H -3.5896345002 0.9990334413 1.8732955667
H -3.8850163625 -0.6613811924 1.0840542719
H 0.1878779147 1.0524533639 -1.8881823132
H -0.4784101806 -0.6551445299 0.0110912657
