19
0
C 3.3200595881 -0.2580245209 -0.0996151127
O 2.0311452317 0.1146116803 -0.5995583968
C 1.2291862051 0.7095830832 0.2293375679
C -0.0235821725 1.0707085966 -0.5053597875
C -1.254492248 1.0313743362 0.3973901932
C -1.6177556462 -0.3742963262 0.8736003369
C -2.0691020354 -1.3121844678 -0.2401198843
H 3.3779674478 -0.0061317252 0.9581873153
H 4.0714155054 0.284696605 -0.6722920033
H 3.4409165027 -1.3290818968 -0.2577338922
H -0.7548880822 -0.8041033509 1.393711174
H 0.1620800007 2.1119424683 -0.8083199554
H -0.1545913225 0.4947110825 -1.429345557
H -2.1074419293 1.4697432233 -0.1306148943
H -1.0589232676 1.6634128385 1.2673019153
H -2.4135130648 -0.2948796278 1.6197563401
H -2.9235285729 -0.8961477561 -0.7805917543
H -1.2755875904 -1.4949413103 -0.9680060506
H -2.3718045495 -2.2813449321 0.1606604457
