14
0
C -1.774685503 0.1480890622 0.3696207261
N -0.4007592444 -0.1488523669 0.0495738711
C 0.1752126097 -1.3134471853 -0.0818529894
C 1.5385384368 -1.190775851 -0.4405148271
C 1.9078543455 0.137095599 -0.5281484294
C 0.6127960895 0.8645183907 -0.3454065683
O 0.6154713329 1.9204408462 0.5608907959
H -2.3122204782 0.5004190678 -0.5132836575
H -1.8011997677 0.9279480435 1.130662797
H -2.2658036557 -0.7456579351 0.7517378904
H -0.3966600736 -2.2212050093 0.0911124061
H 2.1861206064 -2.0510620112 -0.5470253728
H 0.2975469387 1.2067246555 -1.3451871876
H 1.530252363 2.013756694 0.8434035455
