14
0
C -1.4616727005 -0.5218866641 0.2534232636
C -0.5039186251 0.0950204878 -0.7616632438
C 0.3873346699 1.2075716078 -0.1638513728
O 1.437069535 0.7362804203 0.7106546487
C 1.6272378046 -0.5869589988 0.6821434101
N 1.2621290882 -1.2847756788 -0.3195135619
C 0.5900605935 -0.7980990366 -1.3367753224
H -0.939829848 -0.94778466 1.1111635358
H -2.161699615 0.2297695097 0.6236203624
H -1.074249677 0.5528078547 -1.5711089357
H -0.2318429424 1.8619627254 0.4492212002
H 0.8695678004 1.7956083629 -0.9454404102
H 2.1479035567 -0.9874114066 1.5421988736
H -2.0411786401 -1.3194185239 -0.2137664476
