13
0
N 1.6583798137 1.0183620881 1.470668882
C 1.6708227372 -0.0256016466 0.9913086558
C 1.70564237 -1.331741919 0.402690498
C 0.7586044807 -1.759627061 -0.4215659145
C -1.8308302866 1.0643711388 0.2553647123
C -1.2325829607 1.5680563066 -0.81180493
H 2.5543378635 -1.9487167511 0.6727026748
H 0.8123959099 -2.7512537448 -0.8521074841
H -0.0859457682 -1.1335626824 -0.6830783934
H -2.8420434622 0.6749644593 0.211632454
H -1.3293943069 1.0314408877 1.2161652918
H -0.2241403444 1.9628591489 -0.7562156162
H -1.7288400458 1.6134307752 -1.7749838301
