15
0
C 1.8942686282 0.1783820956 -0.1307626717
C 0.6939323058 -0.2111141492 -0.9583974128
C -0.4083706202 -0.950424003 -0.4503882984
C -1.1600908938 -0.5940540703 0.7850344019
C -1.5210778343 0.6811553976 0.0552347547
O -0.4926924887 1.5954479569 0.1852588373
C -0.4567559672 0.976008538 -1.0702288492
H 2.38092499 1.0506718047 -0.5688719763
H 2.6130441762 -0.6425891039 -0.1118748644
H 1.6233914235 0.4249382122 0.8938296245
H -0.9949537963 -1.5000445101 -1.1776889219
H -2.0003731688 -1.2583398553 0.9665282667
H -0.5879378383 -0.4321318645 1.6953550165
H -2.5374130814 1.0265352652 -0.0844825889
H 0.9545141653 -0.5019187141 -1.9705833182
