16
0
C -2.1848129667 0.2012661356 1.1505846784
C -0.8833626014 -0.143636258 0.4835774571
N -0.4644366362 0.7175825171 -0.6563773533
C 0.2840510552 0.711769514 0.5150886978
C 1.3681066611 1.1983059797 1.0809695174
C 2.0402066162 -1.6484681315 -0.9074675821
O 3.0062841251 -2.0371063744 -0.4879435456
H -2.3083125077 1.2831487038 1.1977377155
H -3.0271135545 -0.2210567207 0.599164923
H -2.2092378469 -0.1957150559 2.1674278495
H -0.6769057732 -1.2073581686 0.3758700229
H -0.0375917382 0.2127480599 -1.4250344147
H -0.1440607564 -0.7688570419 -3.8916865561
H 1.6097947894 0.9503899065 2.1055170667
H 2.0281308596 1.8642939805 0.5395329572
H 0.2931722748 -1.2087080461 -3.4783244336
