12
0
N -1.1387672227 -0.2605226204 -1.3978739785
C 0.0395698617 -0.6333522729 -1.0867543986
C -1.4939776459 0.7537593012 -0.4535054552
C -0.5327444409 0.9927472821 0.4353616572
N 1.1607620457 -0.6601479769 1.203961474
C 0.6316947328 0.1104629877 0.0906737687
H 0.4536671936 -1.2873432485 1.5651252347
H 0.5594070362 -1.4101867076 -1.6416750154
H -2.4671790969 1.2167276825 -0.534022463
H -0.5422087034 1.6965173938 1.2534472556
H 1.9530666567 -1.2186435419 0.916834421
H 1.4428415831 0.742225721 -0.2997535007
