13
0
C 1.147968437 -0.1331426712 0.6039419467
C 0.9438372082 0.9386280601 -0.4233440847
C 0.3683167302 -0.6188333151 -0.5677210884
C -1.0736692001 -0.157447818 -0.4904458413
N -1.7299749302 -0.0020974017 0.7771151276
C -0.2885208171 0.9696866362 -1.1183068921
H 2.1754070439 -0.4692537203 0.6848360488
H 0.6143083267 -0.1127154375 1.5469422933
H 1.821127973 1.3923617089 -0.8746515968
H 0.7822405647 -1.2718461045 -1.3219792308
H -1.7443702568 -0.6316505884 -1.2026424852
H -1.8047366081 -0.8599447134 1.3049337008
H -1.3424184713 0.7311643647 1.348491102
