16
0
C -1.4832933063 -0.0195976575 1.4366073574
C -0.4793612408 0.1342763456 0.591172639
C 0.7686858449 -0.6895177919 0.476171095
C -0.3565246671 1.2174677425 -0.4491933521
O 1.0262112147 1.2641099727 -0.8017340498
C 1.708297884 0.2000075596 -0.2969734922
N 2.9361082375 0.000872725 -0.4627341457
H -1.496339324 -0.8286134545 2.1567343903
H -2.3315292858 0.6551628973 1.436560473
H -2.0381769882 -1.628282948 -1.1184294911
H 1.200922891 -0.9827705313 1.4306090783
H -2.0294146012 -1.962223987 -1.7855621613
H 0.5938501169 -1.6006879364 -0.103691769
H -0.655601298 2.1991879908 -0.080585913
H -0.9385281565 0.9843890707 -1.3468377199
H 3.3516626789 0.7366660026 -1.028611939
