18
0
C -0.784483513 2.0301291916 0.8999842148
C -0.0796629102 -0.8079367465 -0.7763532721
C -0.8790314928 -2.0612613684 -0.5350464897
C 0.5312674255 -0.0544880068 0.3659757771
C 1.4105017763 -0.8110150154 -0.5867128099
C 0.5260462794 1.4535295945 0.3775425997
H -0.7720236742 3.12178003 0.895754922
H -1.6263766854 1.7006567404 0.28656497
H -0.9759383675 1.7040218741 1.9251974039
H -0.4413873755 -0.188683223 -1.5923006346
H -0.8771191322 -2.7096323399 -1.4144565939
H -0.4624625163 -2.6317250588 0.2985384859
H -1.918266272 -1.8279912384 -0.2911327777
H 0.3990532352 -0.511290331 1.3436156549
H 1.8717391409 -1.7281821526 -0.2409636222
H 2.0189639123 -0.236513955 -1.274606397
H 0.7097149249 1.8168392842 -0.6391969129
H 1.3607832446 1.8171197209 0.9855104818
