14
0
C 0.2661675474 1.3813240837 0.2428470213
C 0.343630164 -0.143338152 0.3032687806
C -0.9752696766 -0.8172432412 -0.1276787243
C -2.0823922804 -0.43075648 0.741741458
N -2.9386162215 -0.1175457967 1.4371971455
C 2.1754096137 -1.2157544224 -1.4091187401
C 1.3997486906 -0.6837476168 -0.5786590487
H 0.0573595209 1.7162353004 -0.7743540464
H -0.5226557525 1.7450430691 0.9022731609
H 1.208048878 1.8274011281 0.5626492706
H 0.5582280142 -0.4540266918 1.3294027974
H -1.2217683283 -0.537497279 -1.1545245684
H -0.8747355401 -1.9035063654 -0.1002772463
H 2.6146273708 -0.4060125358 -0.5080482602
