8
0
O -2.8702498174 -0.9971848751 0.1828688931
C -1.8396820047 -1.0235231427 -0.4311575419
C -0.6571862419 -0.2744914952 -0.0465665818
C 0.3484967152 0.3138079108 0.2177195549
C 2.487082316 0.9447435314 -0.1560757101
O 1.3993861885 1.0024223723 0.6090480934
H -1.7207965996 -1.6297222267 -1.3454423954
H 3.1754564437 1.6003149252 0.4174306879
