12
0
O 0.0429848269 -1.2476324413 -0.4645270179
C -1.027440211 -0.5557738859 0.1084362286
C -0.8801145102 0.6755472077 0.5705487365
C 1.5183828635 1.2723981847 0.1236189478
C 0.3046121459 1.5325824331 0.6024224716
C -0.1869189578 -2.4512604244 -0.8584409385
N -0.3530463562 -3.5295884201 -1.2237222354
H -1.9527522186 -1.1154401588 0.1307408072
H -1.7883272233 1.093354162 0.9884431995
H 1.7735524149 0.3459793982 -0.3709405751
H 2.3051174047 2.0096179928 0.223143646
H 0.1431668211 2.493089952 1.0812167297
