14
0
O -1.3355263761 2.0837885986 -1.5277260498
C -0.5075400992 0.0791909939 1.3164922396
C -0.9565978378 -0.7246212974 0.3489342043
C 0.4249077653 -1.2501223298 0.0195600931
C 1.3381896377 -0.0945969828 -0.3115807317
C 0.9332098507 -0.3443785187 1.1186032283
H -1.2751523866 1.5569029928 -0.7252342816
H -0.9614052678 0.8523719638 1.9238224678
H -1.3200870679 1.4432404387 -2.2406657056
H -1.9195416242 -0.8598059058 -0.129246077
H 0.7085509809 -2.2792473641 -0.1455793539
H 0.9494507448 0.7720360102 -0.8349803329
H 2.359866747 -0.3614325367 -0.5636710398
H 1.6454169333 -0.6087720628 1.8860343391
