16
0
C -1.8355242649 -0.5143248458 0.5128217539
N -0.7937021585 0.3251306071 -0.0395794311
C -0.8627267772 1.5115003712 -0.4835500228
C 0.4965793624 2.088009278 -1.0029865343
O 0.4201940285 3.2294300676 -1.4322005151
O 1.4048809727 1.2506517061 -0.8730054018
C 1.790301292 -1.7668161155 0.9903155913
H -2.7864670433 0.0132870404 0.4896974094
H -1.5809213786 -0.7730430995 1.5400359236
H -1.9058616384 -1.4298545849 -0.0732125267
H 0.1926008987 0.0024353053 -0.1270387873
H 1.3084800228 -1.4161638864 1.9036012797
H -1.8020975469 2.0573006186 -0.4908571171
H 2.1313334135 -0.9154162595 0.4006608491
H 1.0944493008 -2.3737362236 0.4092136009
H 2.6462555166 -2.3829339792 1.2594659281
