10
0
N 1.5741336206 -0.2859387177 -0.6661334247
C 0.3271356611 0.1628675276 -0.4062638028
C -0.5875815158 1.0717977913 -0.363507542
C -1.0249351655 -0.326544889 -0.0567215006
N -1.3325060425 -0.7102508895 1.3349062429
O -0.4822530334 -0.415767557 2.1224535752
H 1.830676312 -1.1553589923 -0.2329068412
H 2.3061775174 0.4036018845 -0.6817469354
H -0.9494294725 2.0757016295 -0.4717127687
H -1.6564108814 -0.8976137873 -0.7359110028
