17
0
C -1.8631919042 -0.0498167997 -0.1326081796
C -0.7977075416 0.9554761771 -0.5379848407
O -0.6845390981 2.0031177707 0.415178053
C 1.1957555567 -2.4143892262 1.0262469733
C 0.5809823352 0.3478923483 -0.8309568716
C 1.3832562594 -0.1001955715 0.3696147338
O 0.741866405 -1.2114326345 1.0522391804
H -2.8271911197 0.4526559616 -0.0393774877
H -1.9619370947 -0.8380863939 -0.8808529357
H -1.6201678502 -0.5293854304 0.8175605308
H -1.1249723486 1.4431420438 -1.4611202562
H -0.8846086085 1.6497766301 1.2844555996
H 2.1459610162 -2.3921464501 0.4203327906
H 0.4759348352 -0.480872796 -1.5375906986
H 1.1832476884 1.1141567578 -1.3274253982
H 1.4654991578 0.6985647896 1.1070378665
H 2.3836423118 -0.4298251768 0.0755639403
