15
0
O 0.2952054647 -0.2972855624 1.069322031
C 1.5112481737 0.079535833 0.3846808614
C 0.724999475 0.8140599871 -0.7035562312
C -0.5231027149 0.2804069367 0.0249543184
O 0.0785502145 -2.9472571314 0.2206685993
C -1.4826636937 1.2563451823 0.5216592642
C -2.271080868 2.0700401233 0.9075616635
H 0.1171121432 -2.1448635676 0.7631172961
H 2.0608018321 -0.8022744572 0.0484811576
H 2.147482947 0.6945229782 1.022631585
H 0.8545555452 0.4467722692 -1.7182786294
H 0.8164099342 1.8970845829 -0.6821444485
H -1.0475189113 -0.5097083043 -0.5202401803
H -0.2893182909 -3.6274751218 0.7845252658
H -2.9744292509 2.789378252 1.255491447
