11
0
O 1.5093713671 -0.2471342136 0.7485824424
C 1.2650486432 -0.8448612315 -0.3977862531
C 1.2861183027 1.1524643429 0.2122291664
C -0.0735918017 1.2991526935 0.1597768858
N -1.0528079493 0.3204690918 0.3292293221
C -0.9435876729 -0.9501525155 -0.0391127736
N 0.1220744921 -1.4363662165 -0.6325102316
H 2.0772233009 -0.9558800352 -1.1130698024
H -0.4810721068 2.2886593461 -0.0102770945
H -1.9807888015 0.6330242962 0.5724634712
H -1.8370987738 -1.5582595584 0.0456358673
