12
0
C -0.7804784253 -0.7147371115 0.3776858894
C 0.3789917211 0.1918685602 0.041880013
C 1.7029829836 -0.1387651856 0.6872169606
O 0.2559059611 1.1306537794 -0.7049254582
H -1.7025432921 -0.3147018142 -0.0376367474
H -0.5974849905 -1.7086941832 -0.0387112122
H -0.8768487634 -0.8337732338 1.4590051719
H -2.6232111095 1.4962265737 -2.407150086
H 1.9720897649 -1.1796145 0.4937391638
H 2.4785946007 0.5236694054 0.310173751
H 1.6208131298 -0.0253740505 1.7711288693
H -1.9652565805 1.4937617602 -2.0537633153
