14
0
C -1.5102127636 -0.6805720981 -0.6915711238
C -0.1946758501 -0.7717003306 -0.8328042548
O -0.7919450279 2.0661420282 0.9518838643
C 0.7757840759 -1.0339661824 0.2834363317
C 1.822054061 0.0598038641 0.3662234848
O 2.9658267511 -0.0925988303 0.0339939213
H -1.0434485399 1.5258379104 0.1964272625
H -2.1578058682 -0.5173753001 -1.5447708519
H -1.9867541983 -0.7912835462 0.2772455047
H 0.2421643648 -0.6719521627 -1.8236773071
H -1.0301845493 2.965565176 0.723330518
H 1.295683879 -1.9796265444 0.1138717063
H 0.2401910753 -1.0799968588 1.2355548397
H 1.4542525901 1.0331658748 0.7425791042
