16
0
C -0.2611808367 1.9530821752 -1.620393293
C -0.5751557047 -0.8724065978 0.952905512
C -1.5305697892 -1.4252624744 -0.0596042224
C 0.7034404731 -0.6835612282 0.7202480307
C 2.0500100861 -0.2826085187 0.9789235958
O 1.5917803622 -0.8472592401 -0.2881826493
H 0.168111057 2.9429264093 -1.7703330384
H -1.0556287285 1.7893966654 -2.3473047957
H 0.5091132518 1.1938091705 -1.7487064232
H -0.9413295846 -0.598269394 1.9348088035
H -2.3250236775 -0.7079576004 -0.2798501461
H -2.0069365882 -2.3385299312 0.3044459955
H -1.0191752802 -1.6580035989 -0.9937082811
H -0.6703833696 1.8802566957 -0.6135185299
H 2.3239803594 0.7664146249 0.9260150914
H 2.7158259697 -0.9277431573 1.5426733502
