12
0
N 0.1868650064 1.5009766669 0.9006619449
C 0.0024558135 0.3060034669 0.162418645
C -1.1605563883 0.1612282974 -0.9241693301
C -1.289635159 -0.5373990055 0.3269173059
C 1.0213435571 -0.5228442916 -0.1721369863
N 1.9468805443 -1.1978978861 -0.5445867503
H -0.0259252038 1.3706774577 1.8779827697
H 1.0783488206 1.9498800663 0.7570440828
H -0.9384935284 -0.3057705703 -1.8853909397
H -1.5801380494 1.1607477802 -0.9982821661
H 2.1122549321 -2.1153514502 -0.1432245666
H -1.1312093452 -1.6169505319 0.2889639908
