11
0
C 1.8853693462 2.1803506251 -1.6071371129
C 1.1135723926 1.3633306225 -1.1949468934
C 0.1537295837 0.391433336 -0.7637190108
N 0.2672152434 -0.2073185241 0.343274518
C -0.7493776335 -1.1918764858 0.6516941467
C -1.3767120161 -0.9073395953 1.9461262797
N -1.8901303835 -0.6993967958 2.9492498202
H 2.5829738927 2.9062885119 -1.9545913509
H -0.6756843576 0.2023499026 -1.4558579559
H -0.2678014649 -2.1704131675 0.7279098427
H -1.5406496028 -1.2635574296 -0.1065582833
