11
0
O 1.3300190069 0.760739937 1.2202981497
C 0.7475820044 -0.1295972408 0.7065687383
C 0.7883985824 -1.6601478615 0.7316914445
O -0.3036836189 -1.6643474103 -0.220452043
C -0.397814395 -0.2912082228 -0.2936100966
N -1.1480695117 0.4566273242 -0.9430531107
H -0.5566578911 3.8972308438 -0.5855607422
H -0.6831183747 3.1664685124 -0.6707899151
H 1.6906124847 -2.1124777448 0.3197949375
H 0.5058642709 -2.12193312 1.6778849255
H -1.8089005579 -0.0558340174 -1.5230312877
