12
0
C -1.0094817244 -1.545678403 0.2031762043
C -0.1204240048 -0.3679217841 0.1197124737
C 0.3441713995 1.7423052536 -0.332713515
O -0.7218467221 0.8729211511 -0.0033121103
C 1.1925572288 -0.2113371177 0.1918304383
O 1.5279771365 1.1287024734 0.1323222772
H -0.421961282 -2.4541491875 0.3280164593
H -1.6888750808 -1.4481609966 1.0529083524
H -1.6157861637 -1.6396600481 -0.6998145584
H 0.2058644669 2.7051608557 0.1577282591
H 0.3951754408 1.8533274708 -1.4280557632
H 1.9883013054 -0.9205496675 0.3377634827
