15
0
C -2.0932397257 0.0680159831 -0.4414477317
C -1.7370751073 -0.1950773208 0.9927810875
C -0.9545167535 0.5284943523 -0.0594073073
C 1.5913025486 -1.2064576292 -0.5728704026
C 1.9044650408 -0.2996690919 0.3443954236
O 1.3486964044 0.9138783967 0.5475575971
C 0.2885854471 1.2929594716 -0.3049939881
H -2.8379622586 -0.0568007772 -1.2069756182
H 0.5916819386 1.2080080768 -1.3546468253
H -2.2304619884 0.3676184339 1.7851113484
H -1.412304186 -1.1903410599 1.2929049518
H 2.151613246 -2.1297142503 -0.5976367005
H 0.7943474887 -1.0815804883 -1.2921709195
H 2.6982728565 -0.4645077634 1.0637125299
H 0.1109130486 2.3475966666 -0.0870774452
