14
0
C -1.1036173455 -0.2752541631 0.9561656547
C -0.0648100447 0.1144728248 -0.0932007133
C -0.5075715803 1.2925491838 -0.8512001169
N -0.8462732681 2.2055433733 -1.4580194546
C 0.1630390873 -1.0191474452 -1.1034344862
O -0.1719005099 -2.1490419646 -0.9111972923
C 1.3071155749 0.4145606173 0.5421561631
H -1.2311052433 0.5303607393 1.6791145265
H -2.0670816713 -0.4867292044 0.4938114079
H -0.7723708797 -1.1732742654 1.4757839218
H 0.7084109372 -0.7197796527 -2.0207250398
H 1.6415642208 -0.4569057024 1.1061197631
H 1.2264217507 1.2644629442 1.2193919505
H 2.0546439719 0.6524447154 -0.2159912845
