12
0
O -0.0962525474 -0.8758181574 0.9718710678
C -1.2412488233 -0.2190265859 1.3400298974
C -1.9520493854 0.6118970529 0.5989270927
C 1.0917689181 0.8113214849 -0.7508981707
C 0.6271701917 -0.4022713457 -0.0419797715
C 1.5249511577 -0.6418492101 -0.9260721092
H -1.5166835654 -0.5045194787 2.3468765428
H -2.8451895814 1.0495392278 1.0209798003
H -1.6821631529 0.8720021046 -0.4144935184
H 0.4592097021 1.2803302054 -1.5052978567
H 1.7603182177 1.5127137897 -0.2493305664
H 2.2057908686 -1.2947500872 -1.438178408
