13
0
O -0.8577424779 1.2420896147 0.5714297527
C -1.0975460259 -0.0747846592 0.2241339653
C -1.8497776905 -0.3509634494 -1.105530592
C -0.4265049524 -0.6572680562 -0.94854185
O 0.6011227832 -0.962562286 -1.4780538169
C 2.4620213302 0.2361772536 0.1971704946
O 1.8073935386 0.5034051714 1.1703017722
H 0.0437671736 1.2854894956 0.9252203421
H -1.370234714 -0.751241954 1.0337113785
H -2.5986203852 -1.1338293797 -1.0901950344
H -2.0819934425 0.5044368605 -1.7320480426
H 3.1345598739 -0.6370179869 0.1800626374
H 2.434198989 0.8527503757 -0.7151220069
