12
0
C 2.7024076545 -0.7784938744 0.4476177247
C 1.6478901975 -0.55504574 -0.0719320396
C 0.3464767909 -0.2773994184 -0.6700366934
C -0.7208961038 -0.1128306965 0.4016115669
C -2.6144341633 1.2288171458 -0.2291610419
O -1.9989347255 0.0973321487 -0.2411250463
H 3.6455462408 -0.9770947123 0.8997265549
H 0.0633641897 -1.090503973 -1.3422030682
H 0.403452836 0.6344087516 -1.2702230586
H -0.8172620632 -1.0185149501 0.9997085894
H -0.511782798 0.740762631 1.0515851029
H -1.9784790556 1.9399116877 0.3702494091
