14
0
O 2.6050781314 0.0097057214 0.2526377451
C 1.2529061967 0.3175448599 -0.0386253278
C 0.3775781682 -0.5989116292 0.7515414325
C -0.6327532755 -0.2002785305 1.5069757095
C -2.4246087747 1.4150778558 -1.133842506
O -1.5693208498 1.5833950367 -1.8433471508
H 3.1671622989 0.4805773551 -0.3637957162
H 1.0485450616 0.1704574661 -1.1086133013
H 1.0184597144 1.3613804433 0.2055813885
H 0.6112702984 -1.6562712525 0.6591461335
H -1.3304348303 -1.6789583882 -1.3828953246
H -1.2600725173 -0.9067358026 2.0362612512
H -0.8697077263 0.8518204285 1.6281135014
H -1.5936378956 -1.9697975636 -2.0170688351
