17
0
C -2.1961718448 -0.1486500079 -0.4494180762
C -0.6988259535 -0.3175101118 -0.6543271518
O -0.1560790053 0.7713572376 -1.3848794341
C 0.0355668929 -0.5394362089 0.6653652359
C 1.5497611099 -0.6481322753 0.5003253318
C 2.4138898294 0.5660848211 0.4063467297
O 1.7340798309 1.6275069485 0.7870045433
H -2.629969733 -1.0293581443 0.029240905
H -2.4021567222 0.7167633562 0.1871902873
H -2.6932357866 0.0048222261 -1.4075325402
H -0.5238334817 -1.1852937704 -1.2989444729
H -0.1180149974 1.5349368077 -0.8031520168
H -0.2128859562 0.2688634218 1.3608651316
H -0.3475734056 -1.4591831925 1.1155760718
H 1.8198924692 -1.2881134531 -0.3451484337
H 2.003186966 -1.1576264995 1.3651072768
H 2.3313507879 2.3814778447 0.7580276126
