11
0
C -1.5856579578 -0.4910471648 -0.235719169
C -0.2530759709 -0.6292063632 0.3794615038
C 0.8088344714 0.2129406619 0.2450326127
C 1.9954654331 -0.1355512653 0.9620215096
C 0.6839949767 1.3920497068 -0.5859689468
N 0.6105678034 2.3348382837 -1.2388345153
H -1.8023537908 -1.3832679559 -0.8306040784
H -2.3439423105 -0.4636572015 0.5524959177
H -1.6751964299 0.3960259012 -0.8599977308
H -0.0618558782 -1.4843048039 1.0217444355
H 2.7581716535 0.6393952012 0.7715394609
