15
0
C -1.7549109895 0.4399369704 -0.3337179382
C -1.2460803797 0.0031996603 1.0275513865
C -0.391858669 -0.09671768 -0.173564072
C 0.4755111946 -1.0856839378 -0.8092274798
C 1.9675674977 0.5251892999 0.5206369687
O 2.8366839275 1.355111547 0.5194820387
C 0.9772000583 0.3403669528 -0.55766651
H -2.4929063852 -0.1852970085 -0.8204190325
H -1.8707210406 1.5021346806 -0.5083141549
H -1.0306849769 0.7778868169 1.7527142706
H -1.6461526338 -0.9120197587 1.4455549824
H 0.9026690354 -1.8732276378 -0.1984673083
H 0.3013590094 -1.3519659988 -1.8438067065
H 1.8516614132 -0.176174989 1.3763428427
H 1.0951889387 0.9961290828 -1.4114692871
