9
0
N 1.677433631 -0.4117711191 0.1796492442
C 1.1982077209 -1.5133265338 -0.4077158378
C -0.9045859798 1.4280588309 0.3949975101
O -1.9623167129 0.7855293956 0.5170834054
N -2.8473567212 0.0274109855 0.6639537196
N 0.7930393352 -2.4434402911 -0.9543505253
H 2.3147949986 -0.5783892 0.9412023067
H 0.9725749352 0.2999047165 0.3622302237
H -1.1491032069 2.4748372155 0.1868139535
