16
0
C -1.8433794516 0.7047368422 -0.0510381774
N -1.428140756 -0.5093178807 0.6145195603
C -0.7180396592 -0.6916704542 1.9128007935
C -0.2931346543 -1.1988094424 0.5957165862
O 0.5107428458 -1.7355022624 -0.113056733
O 1.4409849044 1.3478585534 0.3778746371
C 2.3358894388 0.8393898327 -0.2405237408
H -2.8140476703 1.0160508632 0.3333446808
H -1.9355428389 0.5034429522 -1.1176385863
H -1.1122469322 1.5022523172 0.1017220812
H 0.359921121 -0.6602270405 -2.4311682321
H -1.2423257173 -1.2905675271 2.6495782752
H -0.1512705431 0.1559265405 2.2939547071
H 3.2187473757 1.4274961732 -0.5534189473
H 0.345780144 -0.2586921428 -3.061225661
H 2.3111643932 -0.2272933245 -0.5186752432
