15
0
C 0.0188903748 1.4500295692 0.1346340583
C -0.968514694 0.3166703872 0.4839222705
C -0.9393913864 -0.8890322052 -0.4709678958
O -0.0482445693 -1.9408302707 -0.063609297
C 1.1427019751 -1.4838180561 0.4074618565
C 1.640303144 -0.3405637319 -0.0170038469
C 1.3249425814 0.881036945 -0.3718254337
H -1.982785606 0.7237668533 0.4929171497
H 0.1428504881 2.127298652 0.984987939
H -0.3978590505 2.0597097968 -0.6734362559
H -0.7831697982 -0.0509474258 1.4959021674
H -0.6839705827 -0.5725065193 -1.4886317264
H -1.9139021575 -1.3748562531 -0.5042519743
H 1.5940032857 -2.1394646832 1.1418175042
H 1.8782709955 1.4267279418 -1.1303615156
