12
0
N -0.103694547 0.2256533355 -1.6553476204
C 1.1555254023 -0.1175482435 -1.6033053446
C 1.2917551976 -0.6930499043 -0.2139744243
N -0.002322489 -0.5843724323 0.5021655016
C -0.8983870462 0.0096823373 -0.4533946316
C -0.4541057107 0.7901448607 0.7164417141
H 1.5776724162 -1.7452519137 -0.2951586391
H 2.0888372405 -0.1892620165 0.3381172468
H -1.8993691408 -0.3814670744 -0.5949723143
H -0.5137584786 0.643589698 -2.4756380687
H 0.243034628 1.5999458795 0.5200943786
H -1.1042844722 0.9265024736 1.5722952018
