16
0
C 2.1860466856 0.5057655382 2.2649512552
C 0.9286064347 0.2098769898 1.5529213242
C 1.1186904447 -0.5575498731 0.3635208386
C 0.1028211248 -0.7080732526 -0.5165353938
C -1.2435639387 -0.1595876782 -0.362367449
C -1.932066179 0.4433696398 -1.5367055766
N -2.289316338 -0.8877817555 -1.0954280436
H 2.0469710402 0.6042934973 3.3428932884
H 2.4328944358 1.5227963456 1.9186537488
H 3.0500809812 -0.1367172247 2.038262026
H 2.0792133148 -1.0210540614 0.1120244004
H 0.2615084217 -1.2692526073 -1.436067179
H -1.4624124384 0.2570652842 0.6124975471
H -1.4237902637 0.4896991584 -2.4929777092
H -2.6017323739 1.2709212995 -1.3315772756
H -3.1483763517 -0.8785463 -0.5602948023
