16
0
N 1.5405375411 -2.5634114227 1.8631066879
C 0.98109639 -1.5824027382 1.1728491802
O 1.4268893216 -0.4258125544 1.6670988282
C 0.3260100322 2.151399015 -0.0911465115
C -0.6682480445 1.2912083303 -0.2664040698
C -0.7452637633 0.2889703873 -1.3723917545
O -2.02431003 0.3927755731 -1.9778672477
H 2.1867291055 -2.3937367831 2.6253809924
H 1.3171571303 -3.5116513371 1.6290124615
H 0.3372028965 2.841868662 0.7440178858
H 1.157095699 2.2057083335 -0.7870654665
H 1.0137175812 0.2870267146 1.1621068406
H -1.5036659154 1.2715938917 0.4288645289
H 0.0536825234 0.4737062126 -2.1016948804
H -0.5880411222 -0.7073527804 -0.9412397315
H -2.2050863456 -0.4222845041 -2.4466967435
