16
0
C -2.0722693067 -0.4773921887 0.1103969191
C -1.2013917466 0.4677356158 0.8905695806
N -0.1539306664 -0.0362824382 1.801089176
C 0.2229926581 0.6315829711 0.5840455583
C 1.6388539181 0.7454056393 -1.6046412769
C 2.1797174308 -0.181779729 -0.5858415737
O 0.7272824568 -0.175677409 -0.4644240364
H -2.5527315968 0.0470755002 -0.7172524277
H -2.8553826158 -0.8862782867 0.7513885843
H -1.4972290302 -1.3041837649 -0.3064835623
H -1.7145063341 1.3369000421 1.289494477
H -0.0541204716 -1.0410985421 1.6986040087
H 0.7505893931 1.5757359887 0.6491221663
H 1.41033129 0.1283996873 -2.4865661961
H 2.5167455956 -1.1953618814 -0.8021173248
H 2.6613800256 0.2403317955 0.2954469278
