11
0
C -1.7418688632 -0.158869453 -0.3605135757
C -0.4309776288 -0.0443618963 -0.1392361778
N 0.3983413072 -0.9098851577 0.5912094487
N 1.6520238263 -0.236527102 0.7431942789
N 1.6665111074 0.8326101445 -0.1126217849
C 0.4918456511 0.9955522457 -0.5858735883
H 0.0347206988 -1.1696965499 1.4960638992
H -2.3144391027 -0.9986272049 0.0086151009
H -2.2597582692 0.60276701 -0.9247836674
H 2.4175166768 -0.8559589344 0.5039324823
H 0.2558415962 1.821754898 -1.2400534158
