16
0
C -1.0500981392 -1.0576094608 0.1951401434
C -1.832534398 -0.0886593378 1.0689937
C 0.147722436 0.9110118656 -0.9827938671
C 1.5720030286 1.1306781144 -1.1709063846
C 1.3093486008 0.3934170946 0.2038416849
C 0.1297781777 -0.4568409093 -0.5370681072
H -0.6979990448 -1.9048133487 0.7926609005
H -1.7127754515 -1.4862580077 -0.5640239902
H -2.6870510208 -0.5905861098 1.526063702
H -1.2131782041 0.3095906765 1.8758545347
H -2.1926589195 0.7579828223 0.4862240628
H 2.1842643684 0.4564615616 -1.7785343815
H 1.9314177573 2.1549031478 -1.1762131974
H 1.0892032831 0.970738938 1.09035256
H 2.1017233626 -0.3279543635 0.3624191444
H 0.7002271632 -1.2128846831 -1.0934495047
