16
0
C 1.8402247902 0.2058876154 -0.0596923708
N 0.6416726904 -0.5896093362 -0.3698752869
C -0.2726541561 -1.1058058525 0.672478859
C -1.323159121 -0.0685734997 0.9122854916
C -1.0751923798 1.0746333872 -0.0385368626
C -0.6149512658 0.0019433914 -1.0059251912
C -1.5018374612 -1.1010599279 -0.2417484191
H 1.5606469465 1.01729946 0.6058909632
H 2.259076637 0.6089998692 -0.9820654216
H 2.5748897249 -0.4293558806 0.4344830136
H 0.0955057486 -1.8365896707 1.3819765513
H -1.8608314852 -0.0385940526 1.8514440453
H -0.4160073227 1.9186739014 0.2116105931
H -2.0245504753 1.4657520462 -0.4052636863
H -0.5020994697 0.1658256641 -2.0761523149
H 0.8846815991 -1.3844971143 -0.9566889637
