13
0
C 1.8654361354 1.7669035196 -0.8093065961
C 1.0365993632 0.8892282038 -0.255582646
C -0.8299897807 -2.4485052385 0.351643364
N -0.51609339 -1.9826264783 1.4807762945
C -0.3757221798 1.0882496421 -0.1611241992
C -1.5633717343 1.2326080619 -0.0678359615
H 1.5052794131 2.6988440945 -1.2270083168
H 1.414918696 -0.0395154204 0.1603034732
H 2.9288864639 1.5708287869 -0.8553178639
H -1.3129038677 -1.8663847064 -0.4399884188
H -0.611566927 -3.4943523124 0.1313736253
H -0.781654281 -0.9988826129 1.5433372238
H -2.6151379109 1.37820746 0.0102130216
