14
0
C -1.4623523255 -0.4507232274 0.3268556952
C -1.0066581169 0.4905385461 -0.7479840616
C 0.2916083667 1.1858042371 -0.334065697
O 2.4958492019 0.2654151846 1.415945428
C 1.7852866712 -0.5029034754 0.8116154663
N 0.8912542777 -0.1406700856 -0.1370231193
C -0.3137136627 -0.8385101655 -0.54785121
H -1.2853493915 -0.2170336357 1.3713302527
H -2.3939760036 -0.9635897745 0.1228285302
H -1.6420692338 0.7936784024 -1.5655990998
H 0.2651104142 1.8008580478 0.5676511902
H 0.777121847 1.7333937621 -1.1419426478
H 1.8250609038 -1.6000033531 0.9519617443
H -0.2808429486 -1.7147884631 -1.1802784713
