16
0
C -1.9335460092 -0.631004394 -0.5810100481
C -1.0273216418 0.4516744745 -0.086717314
O -1.1435700538 1.6060313367 -0.4440226114
C 0.0910247701 0.0647730268 0.8719893821
N 1.3911542985 0.0333451727 0.2183816462
C 1.9227118778 1.1173030917 -0.1629744113
O 1.4327788087 2.3567968647 -0.1430447734
H -1.3285304622 -1.4171072758 -1.0399778779
H -2.6533481915 -0.239191931 -1.2954262892
H -2.4523224421 -1.0875908483 0.2656757183
H 0.9513983811 -3.1589520525 -0.2389817203
H 0.4550138796 2.3332163507 -0.0802126425
H 0.0742790331 0.7886249782 1.6967310413
H -0.0958905281 -0.92597224 1.2872909507
H 1.2769715064 -2.4852815641 -0.2204374953
H 2.9359787736 1.0913620097 -0.5570125553
