10
0
O -1.2244016973 -0.8570849096 0.2264381495
C -0.1580171912 -1.0645460302 -0.6343143654
C 0.1139599325 1.9225271875 0.4762582591
O 1.0249067333 2.6122136459 0.1189834646
C 0.9841096414 -1.53322299 -0.1697307078
O 1.9935822828 -1.9349127092 0.2240684136
H -1.8641246962 -1.562703314 0.1070530367
H -0.2126053524 -0.7537728117 -1.6695582196
H 0.1609838906 1.3137670366 1.3987418432
H -0.8325665435 1.8535128947 -0.0917018738
