12
0
C 3.0429195706 0.0753864634 0.3639274904
C 1.8995463967 -0.1768242267 0.6127114822
C 0.5008481068 -0.4942075781 0.8991954905
C -0.3066671165 -0.7254412417 -0.3577657607
C -1.3976245761 -0.0770639878 -0.638837809
C -2.4874816028 0.5757700789 -0.9141407948
H 4.0594915977 0.3026123169 0.1457896948
H 0.0533387855 0.313964916 1.4801404804
H 0.4688979798 -1.3928784897 1.5228002943
H -2.4583056881 1.4989390542 -1.4813006573
H 0.0576694934 -1.4767682117 -1.0516644168
H -3.454454947 0.2134619064 -0.5846954942
