16
0
C 2.4049366195 1.2599948702 -0.4230721185
C -0.0823267447 1.1231353854 -0.3561402663
N 1.1992023061 0.7696994945 -0.2305174358
C 0.8507624154 -0.5764896145 0.2727022174
C -0.6179848627 -0.1747149686 0.1164704565
C -1.7538159901 -0.5037047505 1.0279058066
C -1.7374312919 -1.0241400596 -0.3908127982
H 2.5116823649 2.2617529405 -0.8061607736
H 3.2485263516 0.6326652978 -0.1898296803
H -0.468747427 2.0618453044 -0.7193165941
H 1.2052752619 -0.7292267661 1.2917677288
H 1.2106999448 -1.3602113456 -0.3934468037
H -2.4519479625 0.2874528729 1.2701768771
H -1.5864774539 -1.215625925 1.8274820457
H -1.5576337533 -2.0826169328 -0.5384597025
H -2.4232587778 -0.5833138028 -1.1032219592
