14
0
C -0.9646169584 1.5031581555 -0.1444999395
C -0.3151446432 0.3518463053 -0.85914857
C 0.8910448433 -0.6110976798 1.1394873248
O -0.0364130267 0.3972731391 -2.0339320977
C 0.0057462548 -0.9083424401 -0.0658310959
O 0.612950988 -1.8531833716 -0.8962810855
H -1.4471511187 2.1583625103 -0.8663289562
H -1.6849601646 1.1612572898 0.5997418879
H -0.1930082725 2.0714721448 0.3810664908
H 1.1321145961 -1.5481232153 1.6402156579
H 0.3939150646 0.0438956118 1.8569268267
H 1.8253890618 -0.1479702872 0.8169754371
H 0.6375969808 -1.4559182786 -1.7787633058
H -0.9606736054 -1.2969428841 0.2934504251
