17
0
C -1.0751797442 -0.5320445223 0.3315254348
C -0.9460784544 0.7539258232 -0.4573406988
C 0.1362880754 1.7155517037 -0.0613364343
C 0.3805978167 0.7301937034 -1.1661131773
C 1.0817182638 -0.5651021351 -0.8089478499
C 0.3440149987 -1.1234388624 0.4136355786
O 1.0476735881 -0.7086691427 1.5798977166
H -1.505080908 -0.3941472466 1.3282362702
H 0.562916361 -1.0124338569 2.3494003497
H -1.7269096199 -1.2244094488 -0.2091936308
H -1.8295730024 1.149901902 -0.941920152
H -0.0041884413 2.7492663388 -0.3504601635
H 0.6451179089 1.5696662602 0.8824214109
H 0.4765164272 1.1055847049 -2.1770449657
H 2.1430451408 -0.4452786852 -0.584308546
H 0.9933150848 -1.2673685639 -1.6418031849
H 0.3146235045 -2.2186039724 0.3887400426
