17
0
C 2.4857113874 -0.4424221586 0.668789097
O 1.1220703699 -0.1346557128 0.5057694822
C 0.7795978773 0.1962599549 -0.8359501819
C -0.5746569807 0.6006226109 -1.1590018402
C -2.2613744813 -0.5894901529 -0.1982539054
C -1.5488916886 0.8045984774 -0.1002184193
O -1.164943056 1.1049732481 1.223429495
H 2.7762598265 -1.2928230613 0.040242925
H 2.6415418482 -0.7042097736 1.7138006763
H 3.1214656218 0.4148218496 0.4164818884
H 1.3362966936 1.0936211656 -1.180107064
H 1.105119365 -0.6082571718 -1.5105481859
H -1.5526856016 -1.4148711322 -0.1011973295
H -2.8278030842 -0.7002033965 -1.1196044531
H -2.9324183158 -0.6215531332 0.6595289834
H -2.2903977078 1.5561472903 -0.3785309068
H -0.3241470734 0.6638790961 1.3946357388
