19
0
C -2.2120345702 0.6526931759 -0.1849325028
C -2.1321784737 -0.7166965209 -0.7809600041
C -1.0531801163 -1.2328274413 -1.3495353619
C 1.5607107328 0.3982775373 0.743452077
C 2.603642303 0.0170926042 -0.2661066878
C 1.9179741598 1.3367195592 -0.0613224864
C 0.7527226324 -0.1169581887 1.8610108442
H -2.9688514087 1.2551886973 -0.6939477684
H -1.2537885359 1.1698406146 -0.254266374
H -2.5023861857 0.603890476 0.868230833
H -3.0400322521 -1.3143389189 -0.737321153
H -1.0553734641 -2.2313635786 -1.7693270025
H -0.1280334152 -0.6691130801 -1.4162333174
H 2.3308568225 -0.6118220375 -1.1150051445
H 3.6392452213 -0.1104962551 0.0508326842
H 1.8390157857 2.3535193584 -0.4032388398
H 1.3991177311 -0.5430122416 2.6311943439
H 0.1420668159 0.6687184977 2.3062179191
H 0.0958292175 -0.915534258 1.5069159412
