17
0
C 2.0111616384 0.3407551937 0.6465014009
O 1.0323167876 -0.4525746016 0.8386281018
C 0.2618914711 -0.9349177876 -0.1499909204
C -1.1917778675 -0.9950225875 -0.0810441505
C -1.7834555031 0.2702480324 0.5533771175
C -1.0201001668 1.145414141 -0.4747799051
C -0.4448003183 -0.1146354693 -1.133804129
H 2.6508871073 0.5161130702 1.4978526567
H 2.1428332277 0.8127491611 -0.3186510964
H 2.8142346414 -1.4014519356 -0.7863673815
H 2.1045829804 -1.6742973882 -0.8909602742
H -1.7459604511 -1.909097469 -0.2553379025
H -2.8638327055 0.3422783398 0.4288470947
H -1.5466019635 0.4239592894 1.6083025661
H -1.6867501988 1.7006041214 -1.1330883746
H -0.2866268182 1.8481281976 -0.0646883538
H -0.3673658611 -0.2685743078 -2.2032064494
