11
0
O -1.1430957339 2.2563544428 -0.3999422793
C -0.7354652656 1.1233159204 -0.256211511
C -1.1050782667 -0.1886561334 -0.4192122711
C -0.0373881375 -1.1371740535 -0.0147166174
C 1.0674946352 -0.2614285925 0.4291529492
N 0.7182398472 0.9571758767 0.3105046265
H -2.0666664301 -0.4884481051 -0.7989806989
H -0.293209626 -1.81262528 0.8146015415
H 0.3425326696 -1.7895633253 -0.8144176571
H 2.0351843648 -0.5744125187 0.8033231114
H 1.2889029431 1.758705769 0.5453858062
