17
0
C 1.7909375221 -0.7409321786 0.3684865742
C 0.702217299 0.2583601497 0.760191298
C 0.1157200443 1.0380484402 -0.434264133
C -1.2272805337 0.3639872867 -0.7716051315
C -1.5541431626 -0.3851359393 0.489927083
C -0.5155365967 -0.4394227571 1.3100137395
O -1.1431199277 -0.5864254705 -1.831070022
H 1.4212130955 -1.4152178931 -0.4069827883
H 2.6746337631 -0.2265053404 -0.0153807253
H 2.1002175856 -1.3456136438 1.2241064099
H 1.1143680356 0.9509379534 1.5006100606
H 0.7812455759 1.0471852815 -1.3000745481
H -0.0668206892 2.0757076044 -0.1469822038
H -1.9951883565 1.1073052878 -1.0180477305
H -2.5128016385 -0.8642034356 0.6419917951
H -0.5003272654 -0.9689882553 2.2561362498
H -1.0656627509 -0.1092760896 -2.6592959276
