11
0
C -0.3684071303 -1.2736982624 -1.4686975084
N -1.7201022785 2.7832606641 2.6753954694
C -0.8343955394 2.2091355692 2.232616727
O -0.1029093848 -0.3584793986 -0.4097090964
C 1.1477649086 -0.2172401764 0.0098812658
O 1.4461778145 0.5299186503 0.8937723973
H -0.8342069382 -0.7250529959 -2.2853790889
H -1.0521160794 -2.0367635808 -1.1006767385
H 0.5509813899 -1.7449175047 -1.8236467076
H -0.0064977574 1.6627249743 1.807925599
H 1.8784299951 -0.8455929391 -0.5274293186
