16
0
C 1.977179908 0.4524176491 0.1723940072
C 0.7231362386 -0.2864993604 0.6148121108
C -0.4316605815 -0.2161888843 -0.3901493003
C -1.6091164446 -1.0889334589 0.0387565499
C -0.8810117419 2.0255923872 -1.5800027789
C -0.8906878174 1.2107109381 -0.5817819432
H 2.3539278887 0.0529482264 -0.7724785326
H 1.7826627296 1.5161638905 0.0251529211
H 2.7705011386 0.3524904199 0.9146021489
H 0.9557694937 -1.3432131521 0.7788330235
H 0.3758386728 0.1037741404 1.5778953874
H -0.0648515304 -0.5724459635 -1.3571260146
H -1.9975439155 -0.7658356234 1.008079661
H -2.4229262452 -1.0369428519 -0.6849249628
H -1.2967947279 -2.1309194691 0.1319862187
H -1.3503440657 1.7520931123 0.2597575039
