14
0
C -0.9342303851 0.6473664079 0.5946054006
C -0.4947197472 0.2858270368 -0.8548230591
C 0.9176898961 0.7784241617 -0.4220223367
C 0.4881043614 0.0996037609 0.9122672937
C 0.3338611787 -1.3467997267 0.4422925587
C -0.3096563998 -1.2246807374 -0.7141700685
H -1.7857047289 0.1089119625 1.011393666
H -1.0289362034 1.7227012184 0.7602985284
H -1.0040066346 0.6720342052 -1.7350674942
H 0.9914427718 1.8655385565 -0.348145139
H 1.7782718627 0.3592318039 -0.9438689451
H 0.9927472814 0.2910828926 1.856711034
H 0.6811509407 -2.2333496208 0.9521150981
H -0.6346061939 -1.9826419217 -1.4115985368
