14
0
C -1.3316811265 0.8373273955 -1.967099422
C 0.2561959367 0.3461549694 1.4642400508
O -0.6023473502 1.156357105 1.6254408424
C 1.162736786 -0.6395304948 2.0577730685
C 1.0169481149 -0.4940703557 0.5205233173
O 0.3876633385 -1.5323151116 -0.1547113379
H -1.8271851826 1.6070312415 -2.5560254327
H -1.9385596287 -0.0686669097 -1.9986623973
H -0.3484782329 0.644162419 -2.3977187093
H -1.2313541234 1.182497342 -0.9380340175
H 2.1062473147 -0.338787689 2.497631363
H 0.6928628535 -1.5079503562 2.5082917811
H 1.8789216164 -0.0518645665 0.0227379377
H -0.2289833164 -1.1548859889 -0.7878620442
