9
0
O 2.7826464108 -1.5165333311 1.2623922325
C 1.9807329187 -0.9842237288 1.8416831543
N 0.5689983337 0.9816971547 -0.3475581909
C -0.6569712987 0.7967137827 -0.124001984
C -1.2079672912 -0.6045335711 -0.0001066199
O -0.5338647169 -1.5921374006 0.0017107851
H 0.7877884977 1.9747900641 -0.4046860784
H -1.3941880327 1.6000163426 -0.0101176099
H -2.3116798215 -0.6606953126 0.0944653111
