16
0
C -0.5876482172 1.4996740276 1.2894118749
C -1.4856762625 0.3668190715 1.062333925
C 0.8892046423 -1.2899594857 -1.4189918221
C 1.8482390644 -0.6320589919 -0.8418715195
C 2.8010565767 0.0331526726 -0.2541025409
C -2.1468381926 -0.6860069966 1.3170829704
N -2.06471486 -0.3170343678 -0.1412391814
H -0.3541411595 1.6039578908 2.3483029519
H -1.0407754076 2.4255340393 0.9291760808
H 0.338900272 1.3415506294 0.7306691127
H 1.1178211907 -2.0728505698 -2.1334878418
H -0.1558487499 -1.0719810012 -1.1993679147
H 3.2245740289 -0.3105672784 0.6825476794
H 3.2047617074 0.9387820156 -0.6918956691
H -2.4980729982 -1.5110861111 1.9056903734
H -2.9270576353 0.1640664559 -0.4021734791
