14
0
C -1.7034848815 1.3939833021 -0.0920674012
C -0.6135904775 -1.1878463347 -0.3574160047
C 0.1255580508 -0.03913413 0.1888406494
O -0.4763381279 1.1060090527 0.2531212166
C 1.5485497605 -0.045670605 0.6092148117
O 2.4603630505 -0.2681887611 -0.4641465519
H -1.9877455507 2.4150609944 0.0901243214
H -1.5165808974 -1.3970616749 0.2368934037
H -2.36240499 0.6265108932 -0.46349344
H -0.966340215 -0.9805876054 -1.379764801
H 0.0137559983 -2.0763709735 -0.3793783487
H 1.7638076953 0.8960012902 1.1265090017
H 1.7443534261 -0.8642179016 1.3062275272
H 2.3147081585 0.4147874537 -1.1224103843
