19
0
C 2.285703766 -0.2054385707 -1.62485671
O 1.391658657 -0.4334891791 -0.5705719382
C -0.6487164643 0.0367153673 2.4447969233
C -0.8909537757 0.1992336224 1.1510793555
C -1.2767986554 1.5305324574 0.574768716
C 0.0883804534 -0.7106831615 -1.0138887158
C -0.8064323728 -0.9568825579 0.1874699981
H 2.3657621011 -1.0824548029 -2.2814494113
H 3.2628013356 0.0004635168 -1.189762834
H 1.9789479751 0.6553727689 -2.2346765592
H -0.3493777044 -0.9241370382 2.8472302991
H -0.7335416204 0.8600284519 3.1448653792
H -1.4352911744 2.2710135931 1.3582180855
H -2.1936480008 1.4549626326 -0.0175194349
H -0.4935379294 1.9047970186 -0.0898349243
H 0.0883573818 -1.6009584851 -1.6601023261
H -0.2898458404 0.126619714 -1.6202112566
H -0.4570348961 -1.8477991716 0.7129756884
H -1.8102382361 -1.1788901763 -0.1941123346
