12
0
N 2.2332984948 -0.1865073676 0.0063006008
C 0.881135321 -0.0311887972 -0.0168160619
N 0.2059193665 -1.2542975354 0.1543392339
C -1.0859566625 -1.2164930605 0.1119275196
C -1.8115048513 -0.0118564418 0.4099096299
C -1.060728759 1.1768767043 0.0502659219
N 0.3412847754 1.1066265834 -0.2494262049
H 2.7841050594 0.5919285433 -0.3079605888
H 2.5888795467 -1.1123990786 -0.1463727733
H -1.6081523681 -2.1651552492 0.0039356394
H -1.2410673187 1.9805118184 0.7756461017
H -1.6397126041 1.5452048809 -0.8276510184
