14
0
O -2.6259037408 -0.7147517537 0.0908937236
C -1.4253859341 -0.0712269454 -0.3001102226
C 1.3060170267 1.625046745 0.1138065018
C 1.5596502249 0.3929801485 0.5418359874
C 0.9763410162 -0.8426127106 0.009789587
C -0.2849118752 -1.0385335345 -0.3749327614
H -2.4932618103 -1.0884508057 0.9642705575
H -1.6314679054 0.3525815173 -1.2866931883
H 1.7825116274 2.4853429567 0.567446075
H 0.6415567881 1.8153948241 -0.7208878135
H 2.2878795873 0.2603596202 1.3384325841
H 1.6551270767 -1.6891443238 -0.0495394168
H -0.5628687459 -2.0184628118 -0.7544512244
H -1.1853263356 0.7625790741 0.3695946105
