12
0
O 0.5152430951 0.0662070396 -1.6330730302
C 0.1472878947 0.0260942778 -0.3763028758
C -1.3139828152 -0.3055738189 -0.2782421393
C -1.8393306028 -0.3905720023 1.0785535866
N -2.2839229976 -0.4644921271 2.1316864908
C 0.9913247767 0.2578272127 0.6904048698
C 2.3537273015 0.5666717765 0.5853464678
H 1.466457387 0.2832715154 -1.6506801718
H 0.532895592 0.1883880251 1.6725747619
H -1.8750599132 0.4491813079 -0.8359970722
H -1.483461717 -1.2564187557 -0.7907524949
H 2.6761989987 0.5999775488 -0.4837033926
