12
0
C 0.0923347424 1.3307854442 0.4067424884
C -0.0155230223 -0.1181012355 0.0132092848
C -1.1270161915 -0.8560351049 0.1117166452
O -2.3292650614 -0.4569973143 0.5696988734
C 1.1633194125 -0.7365939216 -0.506717038
C 2.1747724609 -1.2171045585 -0.9390146901
H 0.8656054711 1.4669837783 1.1647835504
H 0.3636934361 1.9444371643 -0.4542618868
H -0.8367718092 1.7346115256 0.8150624415
H -2.2939191791 0.4677239541 0.8292878429
H -1.1401063504 -1.8954366916 -0.1902538319
H 3.065653091 -1.6519130402 -1.3252936799
