10
0
N 2.191920117 0.3517155105 -0.0446922368
C 3.1774543937 0.9030624191 -0.3378312387
C 0.8703022389 -1.5260844352 0.0080352363
N 0.6524407827 -2.6241762134 -0.2536989318
C -2.0721254878 0.1490984349 -0.257633187
C -1.9729319157 1.2418170636 0.2195242848
N 1.0684475545 -0.2457571318 0.3723673324
H -2.1643889887 -0.8258738257 -0.6823473049
H -1.917263417 2.219159327 0.6421469573
H 0.2391547224 0.3433688508 0.3344860887
