13
0
C 2.1235346754 0.0113186278 0.1283003634
N 0.8768503005 -0.6852417867 0.4042557168
C -0.1071059666 -0.003956008 0.7362222885
O -0.4824142197 1.276445126 0.9200739231
C -1.4899969463 0.1716571844 1.054375719
O -2.4892546365 0.1208784978 0.148691348
H 2.4431683535 -0.2286780879 -0.8869555302
H 2.0531301601 1.0979781657 0.2310955664
H 2.8914949708 -0.3599599381 0.8083196449
H -0.5775537114 -1.1365622153 -1.9965653646
H -1.8633587791 0.0849980501 2.0673711727
H -1.0707961159 -0.9772712047 -2.5351769286
H -2.1357420849 -0.0770354112 -0.7241929193
