16
0
C -1.5732025954 -0.9205979147 0.3082678361
C -0.7372221272 0.2980688276 0.5206030212
C -1.1252424835 1.3819289589 -0.4296469296
C 1.7302559865 -0.9889018361 0.4533165223
C 2.0015854283 0.3724233149 0.01376117
O 0.8647985778 -0.339113074 -0.4806133295
H -1.8448644551 -1.1425694034 -0.7345923729
H -2.5015376757 -0.7056160904 0.8531616585
H -1.1524744586 -1.8139267555 0.7746214533
H -1.4208141524 1.0559543436 -1.4381465484
H -0.3767631976 2.1734096011 -0.5059536036
H -2.0047603129 1.8429057275 0.0382858992
H 2.2849402762 -1.8196354233 0.0331268085
H 1.2769285675 -1.1254947423 1.4291037039
H 2.7607065532 0.5630688779 -0.7357524716
H 1.738796069 1.1835635885 0.6838621825
