8
0
N -1.2975070785 -0.4064433726 -0.1979667894
C -0.3557149236 0.6584521657 0.1011174048
C 0.9274842302 -0.0764550392 0.0780773665
N 0.741912884 -1.3062921336 -0.181552518
N -0.6913659365 -1.4673433423 -0.3495077652
H -0.5995312186 1.1033516372 1.0696717237
H -0.4375888479 1.4449237322 -0.6538749912
H 1.9155998907 0.3282943527 0.2520375688
