8
0
O -0.0937881508 -2.4599964688 -0.4769532739
C -0.2991396944 -1.3029318938 -0.2425212114
C -0.3941677311 1.8448130034 0.3832462356
O -1.0743004571 2.7557371882 0.5953473172
C 0.5480088173 0.9720206748 0.1671603403
C 0.795777053 -0.2984004455 -0.0947980707
H -1.3217716244 -0.893675396 -0.1176980128
H 1.8050577876 -0.6838736622 -0.2167303244
