16
0
C 1.2824984654 0.9389076575 -0.5313720006
C 0.0058249596 0.1948425677 -0.4709742565
N 1.3432799061 -0.5143420909 -0.4396372386
C 1.115070126 -0.8177520269 1.0090947761
C -0.2618732942 -0.194588641 0.9413867241
C -1.338845512 -0.1931770144 1.7041818498
C -0.9662464095 0.1045671925 -1.6017024316
H 1.6100395683 1.5350991397 0.3152771658
H 1.577855411 1.32044021 -1.5017164335
H -0.4456148989 0.1610615617 -2.5582601136
H 1.8524101263 -0.3625565999 1.6749266898
H 1.0913406838 -1.8945870196 1.1755075774
H -2.2750619052 0.2220454112 1.3492129845
H -1.3247685105 -0.6128037642 2.7028039289
H -1.5177828907 -0.8364206497 -1.562173941
H -1.6847738255 0.9261300662 -1.554729281
