14
0
C 1.7323313624 -0.4886850627 0.3205983646
C 1.105923625 0.2380190889 -0.7953405331
C -0.3496489849 0.1368914374 -0.872143562
C -1.2098429318 -0.7338560801 0.0656420014
O -1.3208823725 0.320073536 1.0336097995
C -0.7390427797 1.2682751551 0.1458013832
H 1.1201041707 -0.7204024338 1.2005589636
H 2.6970400339 -0.0759562772 0.613487264
H 1.9577099223 -1.4494315346 -0.1776403474
H 0.0824206543 1.8267327051 0.6047777818
H -0.7432308151 0.2880090742 -1.8750541724
H -0.7500331233 -1.6303680877 0.4873337062
H -2.1858023088 -0.9918254745 -0.3558244412
H -1.4658554524 1.9712179538 -0.2683112083
