10
0
N -1.8759780694 -0.0599556957 -0.3651191132
C -0.7577104094 -0.0775035855 0.3675606837
N -0.2296411902 -0.5425113438 1.3987264303
O 1.6166517178 -1.1188658141 -0.9004696964
C 1.6908352855 -0.0998862319 -0.2669068144
C 0.5725052627 0.4535134373 0.5445223482
H -1.8096959689 0.2749708997 -1.3086955626
H -2.5613987924 -0.7742612221 -0.1859939793
H 2.625187766 0.4975635099 -0.2604213448
H 0.7297133982 1.4391700462 0.9769060483
