14
0
C -1.3207447262 -1.1559477413 -0.1527467072
C -0.356769989 -0.1369017326 0.3265550131
N -0.5537274806 0.9390564851 0.9516770963
O -1.8941074308 1.1679144222 1.2068230351
C 1.4813713076 0.041504939 -1.5430528074
C 1.9140657947 0.5882943061 -0.2323284125
O 0.9569409147 -0.4761463382 0.0658885137
H -2.3320128276 -0.8915894564 0.1413612121
H -1.2505000337 -1.2142282047 -1.2398740813
H -1.0584762257 -2.1314659111 0.2592909971
H -1.8845073289 2.0186008006 1.649515717
H 2.1384849501 -0.8193859281 -1.7450177696
H 2.8642293594 0.3313691307 0.2348708132
H 1.5414717158 1.5607092285 0.0711563806
