13
0
C -0.5202971599 1.555027002 0.5830566262
C 0.0205801539 0.2388264322 0.115765143
N -1.0223846256 -0.5967951892 -0.3788384238
O -0.5606586845 -1.8187417605 -0.9302854827
C 1.3100689464 -0.0738533987 0.2369124656
O 1.9516846478 -1.2061118171 -0.1474658569
H -0.998608095 2.103267645 -0.2357440926
H -1.2690803412 1.4160821111 1.3666008728
H 0.2814732384 2.180324021 0.9723459444
H -1.0194796379 -2.4833705415 -0.4111897594
H 1.9790074519 0.6312065992 0.713594443
H -1.5073321232 -0.1305616024 -1.1389844033
H 1.3033542291 -1.7654175013 -0.5931354764
