13
0
C -1.9106438311 -0.2329524795 0.0949375459
N -1.3574538139 0.9168973688 0.8323363959
C -0.6078871621 0.3357260045 -0.2438496525
C 1.6143826602 -0.6493928286 -1.1985318645
C 1.7961894703 0.1900611128 0.0064058027
O 0.5004575047 -0.4697561787 0.1133468267
H -1.8990782175 -1.2041881192 0.5757949902
H -2.7772935069 -0.0199903933 -0.5175087198
H -0.9882492106 0.6229086138 1.7291241373
H -0.412537555 0.9311472951 -1.1274096572
H 1.9762498335 -1.6525379132 -0.9278529539
H 2.4143401004 -0.0924683156 0.8582882126
H 1.6940967282 1.2702558332 -0.0949940633
