13
0
C 0.2484998021 0.8498715467 1.4031219857
O -0.0359507194 -0.4819002222 1.3804228407
C 0.0157474593 -0.8877649689 0.0196161718
C -1.3814174274 -1.0759033493 -0.5421205644
O -2.3978708062 -0.8103985643 0.0259177931
C 0.6778883007 1.349115339 0.2551471105
C 0.7458160081 0.2349582903 -0.7572408738
H 1.7756679765 -0.0358874264 -1.0038385018
H 0.101830804 1.3277163706 2.3604178514
H 0.5356337031 -1.8476885762 -0.0382545646
H -1.3844107822 -1.4763598062 -1.580737123
H 0.9684377639 2.3718812463 0.0782061658
H 0.2393339176 0.4707581207 -1.6974112914
