17
0
C -2.3211411183 -1.6326762935 0.3870976155
C -0.9983123891 -1.596078586 0.3939522542
O -0.2768971471 -1.0254668676 -0.5967776626
C 1.0602362375 -0.6855654224 -0.2673223112
C 1.1676841147 0.5466267376 0.6135104367
C 0.7179077635 1.8436162203 0.0060076808
C 0.1546803394 2.0132134129 -1.180005463
H -2.8466861591 -2.1501608945 1.1761650143
H -2.8912542798 -1.163445454 -0.4038200906
H 0.6097327006 0.3773695093 1.5422932537
H -0.411798583 -2.0584690592 1.1876288874
H 1.5405388026 -1.5380469252 0.2282958109
H 1.5659299122 -0.5259386935 -1.2207921833
H 2.2153742143 0.6465814674 0.9193996977
H 0.8859928126 2.7174464711 0.6311004457
H -0.0675115683 1.1847078011 -1.841415272
H -0.1240866529 3.0022835761 -1.5223711143
