13
0
C -1.7470291662 -0.4333956702 -0.6304792068
O -1.2664666129 0.0427707091 0.6206948362
C 0.068978165 0.1765415225 0.6832713438
N 0.7636357069 1.1085983932 -0.2136958495
N 0.7614173177 -0.0591947066 1.9091754071
C 1.2970141563 -0.6402508592 0.7013919898
O 1.9821330918 0.3202731215 -0.0851287621
H -2.8311894871 -0.4637149054 -0.5499875008
H -1.3659137708 -1.4397929302 -0.8264018596
H -1.4522671067 0.2317523436 -1.4437493178
H 0.941753077 2.0089613294 0.2311647316
H 1.2963872508 0.7190622223 2.2824625592
H 1.6035273781 -1.6736235699 0.637824629
