15
0
C 2.5449939435 -0.1660211408 0.7042251711
N 1.1642869698 -0.1690299636 0.2872190077
C 0.8035816267 0.6485661696 -0.6014407297
C -0.5871945408 0.6728140886 -1.1082363119
C -1.5816464132 -0.2235690814 -0.5497680013
C -2.472631749 -0.574100119 0.5662765086
N -1.1684689594 -0.6375081181 -1.6461420625
H 3.1538271543 0.5935538741 0.1953730529
H 2.978213428 -1.1501536203 0.5136626962
H 2.5950879286 0.001675316 1.7822587215
H 1.5034349607 1.3751173884 -1.0392819143
H -0.8877041451 1.5678967182 -1.6454775695
H -3.209480012 0.2156096164 0.7205203467
H -1.877438918 -0.6596898179 1.4761716992
H -2.9801932742 -1.5174183101 0.3685883855
