14
0
O 2.7695834213 -0.318975 -1.1573811974
C 1.6417065767 0.08392223 -0.526375955
C 0.718803067 -0.6968499501 0.0222570498
C -0.5155129287 -0.1847032046 0.687139797
C -1.8457211524 -0.1235219909 -0.127187186
N -1.8820860271 1.3447402583 0.0910863786
C -0.7797705985 1.2955996063 0.7330176886
H 2.8096940152 -1.2789616807 -1.1645670863
H 1.5707912551 1.165807242 -0.517034324
H 0.8417001744 -1.7776339603 -0.0187307816
H -0.6513857005 -0.6647067642 1.6610888915
H -1.7474854411 -0.3840505368 -1.1817411964
H -2.7072564229 -0.6360257042 0.3042977615
H -0.2576802387 2.1410674551 1.1796031596
