13
0
O -1.0079893575 1.1631256867 0.8583106708
C -0.0917603638 0.2352248826 0.4257064019
C -1.7844310918 -0.6709872689 -1.1672761314
C -0.5347827378 -0.6008148357 -0.7418986194
O 2.4182016789 -0.8109154557 0.5098468337
C 2.269778934 0.3246579512 0.1610351162
O 1.1072111892 0.9601391224 0.041153986
H -1.2930370642 1.6898176488 0.1051311933
H 0.1616906224 -0.394359767 1.2799502265
H -2.0528726435 -1.2975867526 -2.0081620495
H -2.5858090563 -0.1274559443 -0.6799063738
H 0.2501144739 -1.182884928 -1.2129189857
H 3.0874514164 1.0051426605 -0.1130282686
