13
0
C 0.6762115097 -0.7435025985 0.3774154267
C -0.6790945795 -1.0914102955 -0.2204647226
O -0.8619877707 -0.580102913 -1.5246960784
C -0.9703365101 2.3304425862 0.7025755943
N -0.0170555442 1.5759219927 0.565308119
C 0.9217060542 0.7299390762 0.5509160224
H 0.7668754432 -1.2468372161 1.3481429898
H 1.4740060903 -1.1584321011 -0.2487431381
H -0.8094419497 -2.180270005 -0.2017676523
H -1.4789599032 -0.6582812922 0.3823289855
H -1.3156826468 2.7950062165 -0.2275234399
H 1.9314300605 1.099013441 0.6948586511
H -0.1988422537 -0.962001891 -2.1024377577
