16
0
C -0.4070009317 -1.177767344 0.387861193
C -1.1455843199 0.0462418495 -0.1402481009
C -0.3678077869 1.2727548294 -0.5416033819
O 0.9211445077 1.1544366281 -0.5700049017
C 1.6869514424 -0.0447048658 -0.2236318243
C 0.898329674 -1.3199128832 -0.3798619554
H -1.0225658471 -2.0743909973 0.2950185049
H -0.1886284677 -1.0543000914 1.452965108
H -1.6990599856 -0.1882902819 -1.0608110832
H -1.921098061 0.3995875161 0.5444304213
H -1.9603803336 3.5775671028 1.4622829178
H -1.6436859361 3.2700998923 0.8576340829
H 2.0180445013 0.0971161051 0.8074879556
H 2.5578697336 -0.0019032096 -0.8755722868
H 1.4996149867 -2.1564718861 -0.0172679535
H 0.696286824 -1.5021983639 -1.4399946957
