14
0
O 1.398195402 -0.4477030807 1.1326217842
C 0.3203272527 0.245375057 0.5730784723
C 0.671541186 1.2627211776 -0.509798212
N -0.6246300968 1.4312308216 -1.1533416927
C -0.9892858147 -1.8755093676 0.0655901965
C -0.6660528786 -0.6148706213 -0.1842693284
O -1.152815398 0.083513128 -1.2385446587
H 1.6699487725 -1.132548256 0.5152335441
H -0.1872841537 0.7503448111 1.3984805618
H 1.0115489044 2.2168350751 -0.1107743851
H 1.4409422709 0.8400994847 -1.1701433691
H -0.5185387782 1.6777950802 -2.1306312799
H -1.6799331152 -2.4205513919 -0.561965913
H -0.5645525534 -2.3637039178 0.9309142798
