13
0
C 1.6150355202 0.6327611172 0.3150038066
O 0.2767774993 0.2770480969 0.6251162833
C -0.0980753927 -0.968057082 0.2402080143
C -1.3618385252 -1.3610612028 0.2538693716
O -1.1133166357 1.6765597163 -1.5711067376
H 1.7986855217 1.5963718247 0.7845872719
H 2.3163837248 -0.1040603537 0.7161368665
H 1.7509263054 0.7267945953 -0.7658665694
H -1.4692002723 0.8648593053 -1.9366338352
H 0.7132593343 -1.6239549964 -0.0676540533
H -1.6102311133 -2.3720602074 -0.0331267055
H -2.1567277257 -0.697923555 0.570981061
H -0.8226462407 1.4266697418 -0.6871767743
