14
0
C 1.4304715078 -0.3442775853 -1.1301627791
O 0.110813145 0.1428174799 -1.0474347135
C -0.677080257 -0.4502792451 -0.0182908777
C -0.3648572898 0.2359619741 1.3422728689
C -2.1167598783 -0.3418768587 -0.1907015568
O -0.5872362708 1.6195229538 1.2610591855
H 1.4439349626 -1.4346228761 -1.2492058221
H 2.0315701994 -0.0816207178 -0.2515839097
H 1.8849089793 0.1092150241 -2.0095372386
H -0.4207052277 -1.5164715354 0.0941751715
H 0.6775490083 0.0125130386 1.6006230161
H -1.0087734005 -0.1623539431 2.123380156
H -2.3044845733 0.3683946955 -1.0169586838
H -0.144418905 1.9351245954 0.4673101832
