18
0
C -1.6510380311 -1.3024220339 0.0569461845
C -1.2094557043 -0.0162481644 0.7279132111
N 0.1803863437 0.2783761544 0.4136007119
C 0.5906033708 1.6478326568 0.4800371667
C 0.4029229319 0.9776833746 -0.8419447638
C 1.5945403134 0.5826203395 -1.6460891265
O 2.6263765677 0.194857817 -1.1735935385
H -2.6800124537 -1.5445784029 0.3269143727
H -1.0068737839 -2.129182165 0.3576054458
H -1.6009421659 -1.2135481137 -1.0307670121
H -1.8712919909 0.815396758 0.4356515929
H -1.2765314004 -0.1136467783 1.8143139871
H -0.1478886651 2.3970139511 0.7535995071
H 1.6031665765 1.818622697 0.8264876867
H -0.4753843948 1.2655071061 -1.4153832531
H 1.4782108984 0.6905658026 -2.7443801903
H 1.9963315395 -2.3716713938 1.5165671812
H 1.725522048 -1.7455756054 1.2104148366
