13
0
C 2.0776774327 -0.4177756444 -0.6325397155
C 0.8201231926 -0.808974364 -0.7605121969
C -0.2168822795 -0.7279733298 0.3229841566
C -1.448565226 0.0325009961 -0.1086039812
C -1.8022717232 1.1773706384 0.4079752223
N -2.188783774 2.1875878136 0.9746488397
H 2.4490676039 0.003468592 0.2961763865
H -1.8430636489 3.0597242839 0.5826872379
H 2.7842506361 -0.5061952731 -1.4486736187
H 0.4840607547 -1.2216061387 -1.70944574
H 0.2137095036 -0.267110456 1.2137723871
H -0.5170721301 -1.7427776667 0.6065289723
H -2.0683343419 -0.3654504512 -0.9039009499
