14
0
C -2.0648162716 0.5399594369 0.2176877528
C -0.7086341241 0.0704226023 0.6143274493
C 0.4016560027 0.1268227742 -0.1231578802
C 1.7380375653 -0.3795142668 0.3603294652
O 2.2293484158 -1.445858376 -0.4187269046
C 0.3645256559 0.6714709606 -1.453189587
N 0.3412997965 1.1136311401 -2.5133326496
H -2.4148387108 1.3066332599 0.9132425615
H -2.77958639 -0.2848022048 0.2708330912
H -2.0790796306 0.9517488046 -0.7906115536
H -0.6130301379 -0.3568802138 1.6098105404
H 1.582365645 -2.1545540547 -0.4148158557
H 2.4878809308 0.4097266476 0.2859578685
H 1.6417632529 -0.65663151 1.4168817018
