13
0
C 1.8775234256 0.4898778554 0.2462791318
C 0.4194103693 0.3120715235 0.019371632
C -0.2884249578 -0.9971603237 0.2777947358
N -1.6128056646 -0.6316509278 -0.1116727601
C -1.6779756443 0.6828906374 -0.500472666
O -2.6545232442 1.280494844 -0.8553180966
N -0.3494127514 1.2302583628 -0.4081726262
H 2.1646717135 1.5151376769 0.025105156
H 2.446871967 -0.1901416055 -0.3916534703
H 2.1342754672 0.2545385157 1.2816304194
H 0.1400037478 -1.802901399 -0.3281910773
H -2.4294848306 -1.2088051733 -0.0481182992
H -0.2045285976 -1.2839509861 1.3321089208
