18
0
C 1.8720624637 0.1601844977 0.206833394
C 0.7768166995 -0.7161945852 -0.3861598043
C -0.5344699884 -0.0302418503 0.0721496706
C -1.6429727199 -1.031095431 0.3737124994
C -1.0175606001 0.9927558973 -0.9647194786
C -0.1617985782 0.7733822987 1.3147789679
N 1.1402794901 0.8259906403 1.2993341653
H 2.723937279 -0.3986100713 0.5970483711
H 1.6461680958 1.3540006518 1.993681599
H 2.2493215198 0.908528213 -0.4959955637
H 0.8358997926 -1.7213154756 0.0373461839
H 0.85358098 -0.8066897694 -1.4704051386
H -1.3407709429 -1.7293130821 1.1573055848
H -2.5406954612 -0.5151541958 0.7171702079
H -1.8957357456 -1.6112460627 -0.5185327542
H -1.8606212168 1.5643106936 -0.5743512366
H -0.2290585989 1.7019169373 -1.2295328962
H -1.3371504684 0.4831726936 -1.8772497719
