14
0
O 1.2077679608 0.1791491528 0.5236738675
C 0.3164065238 0.8933581613 -0.2203454434
C -0.8335655536 0.0012632644 -0.6136247361
C -0.7318521576 -1.1321614225 0.4060236138
C 0.7685654115 -1.1709385267 0.6610075485
C 0.5052112912 2.1738353794 -0.5057179664
H -1.7855628154 0.5283551361 -0.5997405061
H -0.672304952 -0.3769255348 -1.6271743911
H -1.2626693173 -0.8696106461 1.3230614997
H -1.1208582891 -2.0825413816 0.0422636097
H 1.2880291147 -1.7935711847 -0.0760727956
H 1.0414322104 -1.5113146054 1.6596440445
H 1.3904195715 2.6957239583 -0.1698093051
H -0.2311959989 2.7121612496 -1.08431904
