15
0
C -1.5342951763 0.5158983573 -0.568794906
C -1.2849027705 -0.9348970787 -0.1687572907
C 0.1502051629 -1.1845883942 0.2323303636
C 0.4970888434 -1.6275420687 1.4120077793
O 0.8020874425 -2.0185046439 2.460900163
C 2.197622808 1.6285936619 -0.4232832634
O 2.3705273391 0.8360048439 -1.3048185411
H -1.3443510237 1.1896071333 0.2694708951
H -2.5663285814 0.6617139825 -0.8939167771
H -0.8778546635 0.8084138259 -1.3912898493
H -1.5387149986 -1.5924002141 -1.0051143306
H -1.9501654514 -1.213834986 0.651283216
H 0.9577036033 -0.9931789238 -0.4670367459
H 1.4900635127 1.4304398379 0.4035412551
H 2.7364049536 2.5938606668 -0.397765968
