14
0
O 2.1953695627 0.6908988835 0.954285173
C 1.6779154489 -0.088397214 -0.0976319957
C 0.2919466888 -0.6383699261 0.2228821877
C -0.7142272146 0.4394503046 0.3597945764
C -2.0621036245 0.6649543029 0.3958324211
O -0.5133405764 1.6842169504 0.3556973473
H 1.6857189992 1.504912769 0.9978152301
H 1.640990931 0.4796641373 -1.0341910354
H 2.3697199631 -0.9186865373 -0.2422100433
H -0.0608401627 -1.3279264991 -0.5491838082
H 0.3131584971 -1.1987415088 1.1625821572
H -2.1066363918 -1.3079396893 -2.6951068463
H -2.5121304223 0.806862228 1.3783133546
H -2.2751936984 -0.790632201 -2.1836037186
