15
0
C -0.623916032 1.2885573942 -0.1759954532
C -0.2505492743 -0.1659407168 -0.0474570922
C -1.2576373346 -1.0251734571 0.6737619672
N 0.4202969759 -0.8318551568 -1.1685379736
C 1.181659215 -0.5497150158 0.037288248
C 3.0163972336 1.2429806901 -0.020920128
N 2.1731922976 0.4396379476 0.0033855229
H -0.7779858427 1.7324425914 0.8093531963
H -1.5569022603 1.3807961582 -0.7359728301
H 0.1447749052 1.8669752401 -0.6880590358
H -2.2139193581 -1.0025729088 0.1469307376
H -0.9235759621 -2.0615484495 0.7175846334
H -1.4186795843 -0.6626536599 1.6910352167
H 0.6629482206 -0.1659481802 -1.8937653552
H 1.4887028006 -1.4153534767 0.6120813462
