9
0
N 3.2437634486 -0.0348207945 0.7452652119
C 2.2006886878 0.1289386639 0.2809348635
C 0.9771126458 0.4184335256 -0.4025029205
C -1.4045520251 0.0234830417 -0.3690550421
N -0.0568243288 -0.1336113494 0.1519051089
H -1.3492552859 0.6655257903 -1.2439956198
H -2.0467798231 0.476966874 0.3872246943
H -1.8127706984 -0.9492284139 -0.6473181387
H 0.016952379 -0.7109743377 0.9862568427
