12
0
O 0.3857756728 -0.4362818122 1.0816121078
C 0.345082991 0.4158339189 0.2242462624
C 1.1441094579 1.6456278783 0.2553659112
C 1.0405331505 2.5329475605 -0.7264288234
N -1.4506000125 -2.3139211511 -0.0028643911
C -1.860446652 -3.428663845 0.1816921743
O -2.3250814196 -4.4932166805 0.259243996
H -0.3208550273 0.2976126412 -0.6528865465
H 1.8050746793 1.7821370128 1.10371529
H 0.3675589 2.3643586883 -1.5611625004
H 1.6140374136 3.4511985355 -0.7354914902
H -0.7776231537 -1.7815157467 0.54885201
