12
0
C -2.1111698966 -0.3241966506 0.6212304461
N -1.4134220237 0.7165690457 0.7717279697
C 0.9358619103 -0.1810082344 -0.7906622654
O 0.4866735251 -1.2675732705 -1.0475753211
C 1.9296224556 0.0887149555 0.295873553
H 0.631179284 0.7026901052 -1.3843749387
H -3.1300630529 -0.4375115115 1.0033643016
H -1.684149931 -1.1676150947 0.0786525887
H -1.9210918286 1.4317361025 1.2896247886
H 2.83770663 0.5144248774 -0.1396030612
H 2.1680159713 -0.8257209373 0.8360728083
H 1.5099599564 0.8322246129 0.9760081301
