11
0
C -0.9725145088 -1.0447948409 0.2653120162
C -0.1075563546 0.1347621143 -0.0070647087
N -0.6790700027 1.2876591704 -0.2270693881
O -1.9096316572 1.5147584557 -0.2354234764
C 1.3105677978 0.0873181983 -0.0400817142
C 2.5088090974 0.0246110685 -0.0623188334
H -1.6534208756 -1.2105483553 -0.5728487995
H -0.3677966668 -1.933001488 0.4294509424
H -1.5976670395 -0.8545843084 1.1408865413
H -0.0517555596 2.0779019977 -0.4097613071
H 3.5719327697 -0.0294740123 -0.0823142723
