9
0
O -1.2031753794 0.6693790408 -0.553043669
C -0.8085164789 -0.0595760893 0.5596194411
C 0.6073211782 -0.6696282933 0.3927461788
C 0.5052510162 -1.9617192493 0.3099738206
C 1.7469438358 0.1681360141 0.324394203
N 2.6358265534 0.893067503 0.2648773569
H -0.6378812169 1.43927751 -0.6577396294
H -1.5317510097 -0.8637744656 0.701713817
H -0.7796064987 0.5341120295 1.4791614811
