10
0
N -1.8306806593 -0.0187693254 -0.1645132497
C -0.483872468 -0.3732162373 -0.1464802401
N -0.3280486785 -1.8040325707 -0.3837156498
O 0.7851928385 -2.2043145191 -0.5274770336
C 1.6486930738 1.0818696455 0.1960464197
C 0.5609314536 0.3981267642 0.0264629607
H -2.0621765178 0.7950644223 0.3797142878
H -2.4278097514 -0.8049693345 0.0447850263
H 2.1000082501 1.1940911849 1.1772838416
H 2.1444464591 1.56551997 -0.6402383628
