18
0
C -2.5418362681 -0.1356233366 -1.0711186468
C -1.4922414932 -0.018069209 0.0256397156
C -0.1256697497 -0.538021795 -0.4087435493
C 0.9119295993 -0.4078258864 0.6815576672
C 2.4158342485 -0.2982630579 0.3277958215
C 1.6450630772 0.8370788166 0.8492403233
N 1.5541223402 2.045245185 1.171101239
H -3.5100892153 0.2395382952 -0.7356279763
H -2.2523416763 0.4377444145 -1.9553373429
H -2.6770592834 -1.1752157468 -1.3804936191
H -1.3885786562 1.0253108995 0.3371679384
H -1.8219935937 -0.5703703516 0.9117255915
H -0.2025566043 -1.5870114153 -0.7151943737
H 0.2106485379 0.0196383301 -1.289850217
H 0.700179489 -0.9639169576 1.5914459949
H 2.6833379823 -0.2982693433 -0.7237957776
H 2.4525316174 2.5139561726 1.0543070349
H 3.1261716484 -0.7953020141 0.9780671764
