16
0
C -1.6084897995 0.4290767939 -0.3003772219
C -0.6216866138 0.0317612956 0.779586345
O -1.3678668223 -0.6132887508 1.8046846255
C 0.4424775952 -0.8983865993 0.2669037324
C 1.7459640219 -0.6669053942 0.3446172025
O 1.2026448797 1.130360646 -2.457057206
H -2.387931503 1.0607943603 0.1262801185
H -1.1040144918 0.9769054995 -1.0974466059
H -2.081556377 -0.4603027033 -0.7221846391
H -0.1391270808 0.9345271236 1.1782111882
H -0.7605660148 -0.8840409712 2.4963860171
H 1.2736767304 0.5062070269 -1.7276206603
H 0.0748152059 -1.8300474544 -0.1593462352
H 2.4755176165 -1.3816849569 -0.0172663765
H 2.1309424968 0.2503215476 0.7798369819
H 0.9151871567 0.6085895364 -3.207485266
