13
0
O -2.7261538553 -0.3851076203 -0.4278793246
C -1.5708955796 -0.233946143 -0.1813995886
C -0.7340107803 0.9640275441 0.2704299029
C 0.5054839316 0.0666064019 0.1553503172
C 1.7670639666 0.1898846445 0.8907161827
O 1.489041904 0.4088991138 -0.8693602384
C -0.3512608587 -1.1548139327 -0.2131199457
H -0.9403809893 1.2777280444 1.2953379666
H -0.7783670851 1.8375248794 -0.3830389605
H 1.5998158729 1.365609954 -0.8815174102
H 2.2523764744 -0.7968847126 0.8403701232
H -0.1337126536 -1.6089535495 -1.1805400882
H -0.3754933476 -1.9306016239 0.5540810634
