9
0
C -0.9912943486 -0.1832130706 0.8380043111
N 0.4623143194 0.617230556 -1.2429368508
C 1.0075749581 -0.1122924614 -0.3720627093
O 0.3735065903 -0.5675385543 0.7078181306
H -1.3418073811 -0.6404547621 1.7600521526
H -1.0804799889 0.9027476798 0.88976695
H -1.5726984653 -0.539610559 -0.0132941
H 1.1213506821 0.8489664812 -1.9764800344
H 2.0400776342 -0.4669763096 -0.3694608498
