15
0
C -2.029742326 -0.2907863322 0.3199170928
O -0.7468402727 0.1226855911 -0.0682821371
C -0.3819569174 1.9454176453 -2.461718959
O -1.4959856571 2.0590350823 -2.558639235
C 0.2796524074 -0.5393768877 0.6256275978
C 1.6015972019 -0.0099040211 0.1168329397
O 2.6214246934 -0.6826690106 0.8289951292
H -2.1796731721 -1.3620093563 0.1331796659
H -2.2090668524 -0.0939579274 1.3847384934
H -2.7476642108 0.2761784683 -0.2715569862
H 0.1998343577 -0.3601114034 1.7069123623
H 0.2268676681 -1.6246389776 0.4610801872
H 1.6728601309 -0.1927035546 -0.9617458263
H 1.6420233457 1.0736960642 0.2795701388
H 3.4717496032 -0.3720183803 0.5179145366
