11
0
N 2.0082427644 0.4230282714 0.5585968989
C 1.1531300176 0.1150647857 -0.4107274014
N 0.9211141105 -0.5646513474 -1.4354932889
N -1.0762525293 -0.1520776463 1.1629774589
C -1.1516933222 -0.0053770635 -0.0864111547
O -2.2279563961 -0.2741892881 -0.8348394597
N -0.0856819006 0.5598728035 -0.8300242243
H 2.8020786086 -0.1813415619 0.685438103
H 1.5861601092 0.7988589181 1.3925603719
H -1.9507340253 -0.4984516923 1.545676864
H -2.0177014368 -0.0714481791 -1.7529591676
