16
0
C 3.056285552 -0.6364471641 0.4797311027
C -0.3818424987 0.1511732592 -0.6094201174
C -0.8377416885 0.2161311529 0.8462596672
O -0.2839400801 0.067779468 1.892680023
C -2.2866035572 0.4895873844 0.4510006004
C -1.8710481445 0.2634470295 -1.0257979391
H 2.9189011808 -1.5980098113 -0.0142510076
H 3.9837092528 -0.6565799342 1.0504269382
H 3.1156904615 0.1509059484 -0.2713942336
H 0.1528821127 -0.758415041 -0.8837862259
H 0.2350721508 1.009747223 -0.8816890537
H 2.2186957065 -0.4442817064 1.1491904133
H -3.0173160469 -0.1961992922 0.8804676701
H -2.5862425637 1.5122311505 0.6884153341
H -2.2682849124 -0.6597093934 -1.4445097441
H -2.1029199254 1.0816397267 -1.7045624274
