17
0
C 2.0182114652 -0.20648658 -0.6202551253
C 0.9683542738 0.3820209322 0.3161105385
O 0.0328762371 1.0579982486 -0.552592173
C -1.2712176297 1.130292166 -0.0354771329
C -1.8716074818 -0.2797071697 0.0182483675
C 0.217333933 -0.5585270133 1.2448595745
O -0.7990315684 -1.2454022849 0.1758222325
H 2.4064095268 0.5512751771 -1.3036838299
H 1.6118946284 -1.0195588485 -1.233667441
H 2.8468823687 -0.6132671963 -0.0389967213
H 1.4586545519 1.1238631958 0.9628374839
H -1.8470558541 1.7508610098 -0.7251352712
H -1.2869325447 1.5860104649 0.9557972054
H -2.5190165601 -0.4238166318 0.8792949999
H -2.3929541597 -0.5501032434 -0.9028078384
H 0.8527023409 -1.4176337891 1.4921366937
H -0.3673755273 -1.3495404373 -0.6871305627
