15
0
C -1.3630095048 -0.3483284465 0.9531499762
N 0.0817099636 -1.004862283 -0.8854285788
C 1.3379461972 -1.0950969536 -0.6994677595
C 1.8899580549 -0.0381974868 0.1710080112
C 0.8603489748 0.731080257 0.5129467538
C -0.391719873 0.1611742439 -0.1107658169
N -1.0602073412 1.1474257578 -0.9366716181
H -2.2238339207 -0.8107426088 0.4676605318
H -0.8837445172 -1.0962320548 1.5850884305
H -1.7072724579 0.4822059361 1.5690732704
H 1.9221947366 -1.8876379983 -1.159252762
H 2.9270284807 0.0691242976 0.455598856
H 0.863359467 1.6148557711 1.1352105516
H -1.8475986246 0.7101451348 -1.4003514283
H -0.4320886356 1.4696334338 -1.6629004179
