8
0
N -0.9843606589 0.9490663722 0.0773005452
C -0.4647673116 -0.3533166879 0.4475965183
N 0.7417968395 -0.6189902685 0.1972320929
C 1.9510906485 -0.7397985198 0.0692291374
N -2.1197312678 1.3146648111 0.2385780325
H -0.2358782479 1.5442363448 -0.3427303177
H -1.1537628152 -1.0270211362 0.9351754238
H 2.2976738134 -1.1758919157 -0.8719824324
