11
0
C -1.6022807053 -0.1510767965 0.2237947192
N -0.212306359 0.0518944709 -0.0936801389
N 0.3843473005 1.2069212735 -0.1209650452
C 1.6822222785 0.939613648 -0.1981419878
C 1.9783506695 -0.459681052 -0.1999252309
N 0.7347833686 -0.9269720805 -0.1081615091
H -1.7470826887 -0.3066659993 1.2952467863
H -1.9821213628 -1.0120058581 -0.3269943096
H -2.14165523 0.738189415 -0.090384457
H 2.3829564494 1.7565784814 -0.2615181408
H 0.4339862795 -1.8882435023 -0.106856686
