14
0
N 1.6652740877 0.7903225132 0.858619594
C 0.6202443957 0.1467538252 1.4344182129
O 0.2174281812 0.4042358768 2.5500869663
C -0.0302510315 -0.9362162089 0.5854616558
C -1.1738557278 -0.3875047481 -0.2619683245
C -0.7526876748 0.3548091491 -1.4976059197
O 0.3854768598 0.5156685177 -1.853389338
H 2.0456331927 1.5844418047 1.343079197
H 1.8181346555 0.7017958357 -0.1320312696
H -0.4217003762 -1.6745354241 1.283277033
H 0.7053251254 -1.4227773626 -0.0575055154
H -1.8303050274 -1.1968687374 -0.6024240219
H -1.8212346265 0.2738496857 0.3249546075
H -1.585169034 0.7566762727 -2.1091178775
