13
0
N 3.4891528525 1.4320321215 1.4998142691
C 2.809400619 0.8608923371 0.7773055655
O 0.7620501811 -0.5668740984 -1.0060578581
C -0.4988367971 0.0467323614 -1.0175008971
C -1.6920081131 -0.7424889473 -0.5859206365
C -1.1061616986 0.3162526839 0.3117274493
H 0.8269947943 -1.1672309613 -1.7511112371
H 2.1624861082 0.3234994924 0.0998286522
H -0.6268786298 0.7909819152 -1.7973947886
H -2.6393134128 -0.5526920771 -1.0728349328
H -1.5178381192 -1.7727869461 -0.3041552828
H -0.5519752063 -0.0262995054 1.1754309804
H -1.6446765781 1.243557624 0.4501137167
