11
0
C -0.0216410073 0.8687722648 0.1855667128
C 1.442513798 0.6458416098 0.4322423998
C 1.0935076017 0.7121563386 -0.8035159257
N -1.6115776511 -0.9131449203 -0.8450398805
C -1.0242928846 -0.2282818363 0.3844766128
C -0.8189692099 -1.5612965099 -0.1346179678
H -0.4320175432 1.8645528321 0.3575987071
H 2.2062755334 0.5177565339 1.1789170638
H 1.3482473851 0.685555928 -1.8480670045
H -1.7295769261 -0.0789786749 1.1990381275
H -0.357863096 -2.5395595659 -0.1164298453
