13
0
C 1.3381517137 1.6799356367 0.2816356211
C -1.2957083791 -1.7079484906 -1.0815848845
C -0.4603473909 -1.5353158741 0.1520536581
C -1.3331426599 -0.5355217632 -0.5617551338
O 0.2697311935 1.6222468137 1.2014668025
H 1.074447395 1.2345448681 -0.6853741294
H 2.2380176843 1.184142395 0.6629212292
H 1.5692283431 2.7325380255 0.1203866706
H -1.6067019789 -2.3996653334 -1.8434507559
H 0.6244097713 -1.4736726797 0.057018632
H -0.796370679 -1.9720725962 1.0919975894
H -1.6938113298 0.4781662518 -0.5594134215
H 0.0045993168 0.7042207464 1.2936331224
