14
0
C -0.6962345167 -0.9934550677 -1.025543948
C 0.4607120602 0.6519343418 1.8758102082
C 0.0144418394 0.8285344142 0.6148962161
N -0.930110324 1.8036415545 0.2380395947
C 0.4527806837 -0.1950625008 -0.3918858357
C 1.3129488447 -1.0306024791 0.4583519631
O 1.3414990437 -0.6660618768 1.6387042989
H -1.3699813824 -0.2928457554 -1.5169428795
H -0.3361368846 -1.7158636432 -1.7593287812
H -1.2655468461 -1.5155978914 -0.25609012
H -0.5662889353 2.4631532448 -0.4367482864
H -1.2446094972 2.3123252344 1.0530441456
H 1.0781986885 0.2262658785 -1.1924732245
H 1.8998062261 -1.8974124538 0.1534226486
