10
0
N -1.5840712593 0.312225273 -0.052795395
C -0.1500054113 -0.0469758178 -0.0101391398
N 0.1371337155 -1.3190407009 -0.0676132608
O 1.489281167 -1.2943603437 -0.0058436484
C 1.8771450561 0.0197601779 0.0840808515
C 0.8511645625 0.9221454414 0.0881806878
H -2.0923118082 -0.0562862453 0.7492293673
H -2.0337606385 -0.0141868865 -0.9063814685
H 2.9522341527 0.119462338 0.1378236485
H -1.5826975365 1.3349627639 -0.0244186424
