16
0
C -2.0994154989 -0.109364109 -0.415843526
C -0.8744922833 0.7253474165 -0.0676799971
C -0.1116349696 0.1667859905 1.1242523815
O 1.026645995 0.9296809788 1.4612917204
C 2.1010473104 -1.0000478216 -1.5356460537
O 1.370036252 -1.6234536881 -2.1801002545
N 2.7557604359 -0.2698552176 -0.8239283923
H -2.7948508362 -0.1601287212 0.4255916234
H -2.6374283617 0.3121622488 -1.265954103
H -1.819441551 -1.1331052579 -0.6766556039
H -0.2031316509 0.7741893479 -0.932429381
H -1.1607855188 1.7563155664 0.1570294356
H -0.7524452844 0.1680080988 2.0099178941
H 0.1620128905 -0.8816502078 0.9316242671
H 3.7458636428 -0.3628215418 -0.6786743857
H 1.6683424283 0.8210719175 0.7524253749
