13
0
C -1.8166247123 -0.0518639887 0.38999962
C -0.6068800991 0.7756692219 0.0938860039
C 0.4224428916 0.9390810228 0.912268479
C 1.8696434325 -1.0527465222 -1.2260120721
O 2.587141335 -0.4321190874 -1.9549377054
H -2.7199726859 0.5633634818 0.3795430576
H -1.7426887268 -0.5339676575 1.3657385974
H -1.9579031489 -0.8272953178 -0.3678538013
H 0.8578841605 -1.378396166 -1.5347486819
H -0.5913823661 1.2782603259 -0.8706777021
H 1.2681246678 1.5589069083 0.6399769349
H 0.4512322717 0.4633738078 1.8876433065
H 2.17576198 -1.3410450288 -0.2027050365
