17
0
C 1.8292397071 0.5456748798 -0.5616005682
N 0.7924819128 0.346200139 0.1796831708
C 0.125741027 0.311418802 1.3236537175
C -0.6519148026 0.1297235651 0.0731773929
C -1.4121287922 1.2655663237 -0.5791534916
C -1.1182038406 -1.2538987629 -0.3154601801
H 2.7460993996 0.896519533 -0.1100308576
H 2.5377781604 -1.9279343627 1.3740501325
H 1.7590790538 0.3318539194 -1.6174019305
H 0.1468805858 1.0581250732 2.1032619591
H 1.9142690144 -1.6254889227 1.6591323584
H -2.4361601209 1.2734807301 -0.1993157493
H -1.4646388115 1.1529537171 -1.6648381681
H -0.9537951707 2.2276198095 -0.3479218433
H -2.1298886391 -1.4154991208 0.0633539531
H -1.1454804356 -1.3803170914 -1.4012892072
H -0.4666052476 -2.0108932316 0.1186873114
