13
0
C -1.5606682262 -0.801820262 0.1560955956
N -0.3104986435 -0.5102266613 -0.5075611682
C 1.5913186436 2.0973719043 0.1771416598
C 1.2059069061 1.4227835046 1.2292762042
O 0.8833001941 0.8491943177 2.1805934635
C 0.2331136969 -1.4200724846 -1.1827525056
H -1.9212512812 -1.8226828855 -0.0246938389
H -1.4289676607 -0.6506259601 1.2290649411
H -2.3150619719 -0.0880491068 -0.1792542252
H 1.1945070935 1.8108479172 -0.7832895409
H 2.2781053312 2.9197451653 0.3019261202
H -0.201477407 -2.4213822469 -1.2970072448
H 1.1808623252 -1.2229592018 -1.6806654608
