21
0
C 2.2032186903 -0.3183426498 0.0481404877
C 0.8382532253 -0.3014459589 -0.6327101194
C -0.2276420062 -0.9522190921 0.2486349007
C -1.5164323164 -1.2530331615 -0.3749263501
C -2.6001749878 -1.3863505275 0.6060285708
C 0.4096660084 1.1050111992 -1.0700925632
C 0.2655597144 2.1305024789 0.0502459916
H 2.1794646003 0.1941003328 1.0133459466
H 2.5379757958 -1.3421918381 0.2310113527
H 2.9578556338 0.1741428931 -0.5691664324
H 0.8951376418 -0.9050412627 -1.5436793813
H 0.0600425293 -2.0077417848 0.4482372234
H -0.2825847899 -0.4923901442 1.2508080229
H -0.5420224558 1.0117628362 -1.6030843314
H -2.320391293 -1.5435900079 1.6585040392
H -3.0370115168 -0.3733952711 0.5345035793
H -3.3972244257 -2.0629331184 0.2970132894
H 1.1347562287 1.4751058051 -1.8016930905
H 1.2084484581 2.2975692204 0.5749085707
H -0.4755653417 1.8247878951 0.7928375659
H -0.0591993929 3.091986156 -0.3510472722
