12
0
O -1.0791186063 1.2203014962 1.293211547
C -0.2245398516 -1.2720528596 -0.6909091036
C 0.3301740203 -0.030746413 -1.3552304806
C 0.4144790754 -1.4648752291 -1.7847857511
C -0.0871426989 1.1522067678 2.1893878897
O -0.208804185 1.5086717995 3.3174281574
H -0.7715823785 0.8731560049 0.4445518915
H -0.783202695 -1.6615273435 0.1421341877
H -0.3350953783 0.6447924976 -1.893268644
H 1.2205383597 0.4528108562 -0.9522463919
H 0.7858016416 -2.1307846012 -2.542268152
H 0.8488826966 0.7324970241 1.7779198499
