15
0
C 2.4828037509 0.0093680355 0.7254738021
C 1.0285941077 0.3483990642 0.6792637299
C 0.2165060029 0.0786921126 -0.3321693084
O -1.6306402675 1.0418145104 -1.5294071341
C -1.2510779626 0.4040733013 -0.3463655671
C -2.0529533801 -0.8683270747 -0.152830707
O -2.878715928 -1.2293381986 -0.9468368362
H 3.0856617224 0.9089540758 0.8710346402
H 2.80917548 -0.4773447669 -0.1940412902
H 2.7004595635 -0.65881324 1.5625432521
H 0.6233488468 0.8626054899 1.5491989078
H 0.58854804 -0.4125858405 -1.2280787473
H -1.4799831076 1.0372276529 0.5260163411
H -1.8296043095 -1.4470656498 0.7623859613
H -2.3425035589 0.5113595283 -1.9129590443
