8
0
O -2.9514474299 0.7840447402 0.2468492371
C -1.9530658333 1.2963183428 0.2220519584
C 0.6937482384 -1.309273573 -0.0883056548
C 1.034395351 -0.0484561353 -0.0988687037
N 1.4331232651 1.1005346107 -0.1208373536
H 0.7092320557 1.8055606381 -0.0004951105
H 0.4279705656 -1.8059961049 -1.0099787553
H 0.6828757873 -1.8588745186 0.8415613823
