11
0
N -2.0887678792 -0.5487796029 0.1348341809
C -0.7522084575 -0.1708441946 0.0542456113
N 0.1975124321 -1.1108366404 0.1962623306
N 1.3512013256 -0.530109909 0.1406243439
C 1.1866121379 0.9000264348 -0.040005378
C -0.2634708942 1.1382482965 -0.1133582199
H -2.6980578362 0.1424917305 -0.2697319699
H -2.283402616 -1.480263784 -0.1945721655
H 2.1846894014 -1.0818419664 0.2406240386
H 1.6975779933 1.2385841968 -0.946981505
H 1.6218913927 1.4445754387 0.8054627331
