15
0
C 1.9305000031 -0.4720491045 -0.7809025518
C 0.6210602103 -0.0491395835 -0.2293063817
O 0.5195768219 1.2893981354 0.0921292195
C -0.5078106199 -0.7148039781 -0.0122449768
O -0.8222755295 -2.0217741796 -0.2305042667
C -1.5694526876 0.2091486908 0.4964663412
C -0.7247273728 1.4564722514 0.7860439016
H 2.7309427212 -0.2861461681 -0.0617781167
H 1.9359817129 -1.5353190657 -1.0270701903
H 2.1629524339 0.0877527496 -1.6897194231
H -0.07097073 -2.472398418 -0.6218407769
H -2.0624488374 -0.1737200713 1.3916294043
H -2.3395234889 0.3754184562 -0.2636243337
H -1.1792217914 2.385048937 0.4430728639
H -0.5085398455 1.5413113481 1.8554232874
