18
0
C -1.9360719506 -0.0727574216 -0.6912664516
C -1.591219441 1.1755597847 0.1098662073
C -0.4614376421 0.9719743288 1.1012408808
N 0.7087963695 -1.4861552802 1.088323011
C 1.2691697168 -0.5488965943 0.4517853802
O 0.7656476427 0.6953635134 0.4149610777
C 2.5316145941 -0.6081686074 -0.3579643325
H -2.7626245563 0.1200059925 -1.3772279231
H -1.0826712338 -0.4056637901 -1.2849621079
H -2.2177695383 -0.897126298 -0.0339471729
H -1.3254566782 1.994093702 -0.5654786807
H -2.4656372406 1.5106949531 0.676758628
H -0.2792568855 1.8864290302 1.6684311417
H -0.6772200012 0.1570214961 1.7918368187
H 1.2398800648 -2.3434844282 1.002424464
H 2.3086155981 -0.3700513223 -1.3991688183
H 2.9869741064 -1.5950544598 -0.3058717905
H 3.2400960755 0.137724401 0.0035756676
