12
0
C 1.7302792126 -0.1919274788 -0.4551692321
N 0.8073964406 0.5599296811 0.3878209352
C -0.5374310574 0.3112398321 0.1943230036
N -1.2832979032 -0.9349978148 0.2934879546
C -1.6247264459 0.916241326 -0.2845299057
O -2.4428727754 -0.1905529444 -0.1459463042
H 1.6839916465 -1.2759634885 -0.3004717537
H 2.7476275939 0.1480755467 -0.2590988553
H 1.4990202414 0.0115179249 -1.5009732171
H 1.0759246704 0.5413394408 1.3605381577
H -1.4874946445 -1.214211156 1.252627718
H -1.957885979 1.8321631308 -0.7438315011
