14
0
C 1.0296365937 -0.2903639215 -0.1323239662
C 0.0027884312 0.3918772192 0.7226323506
C -1.2890028579 0.4908068272 0.4379676835
C -1.9795491077 -0.0517175611 -0.7736117081
C 2.4344227608 -0.2354209289 0.4069023371
O 2.7675212832 0.2976062764 1.4283317227
H 0.8005303242 -1.3525889113 -0.2866596115
H 1.0719807554 0.1334986734 -1.1437377536
H 0.3804783967 0.8297941535 1.6398789382
H -1.922344113 1.0162380566 1.1472858496
H -2.4757568426 0.7498006277 -1.326956235
H -2.757245034 -0.7649953934 -0.4880281533
H -1.2961068938 -0.558435195 -1.4553070767
H 3.1884063041 -0.7451739231 -0.2291513772
