15
0
O 0.8767671696 -2.6304002832 -0.4945386963
C 1.3616572711 -1.5850948387 -0.589452533
C -1.642989874 -0.3144745414 0.9698290802
C -1.069640723 0.3431272524 -0.2878348084
C 0.1309584255 1.1931001932 -0.0076208211
C 1.406516111 0.8579125612 -0.1952707889
C 1.9456916454 -0.4120131452 -0.6928185725
H -2.5321446861 -0.9020045555 0.7343041558
H -1.9208436641 0.4375662924 1.7110744994
H -0.8235404191 -0.4243874788 -1.02722834
H -1.8425552904 0.9667932763 -0.746220632
H -0.0625183684 2.1803666476 0.4018263896
H -0.9126800401 -0.9801257879 1.4339364655
H 2.1688652441 1.5933737764 0.0377235505
H 2.9308241984 -0.4448693688 -1.1417549488
