9
0
O -1.8935137171 -0.7037680908 -0.0391718357
C -0.5989748969 -0.6324615581 -0.1591496752
N 0.3506723842 -1.3747209086 -0.5390639682
C 1.2304909434 -0.1996539435 -0.2067013881
N 0.234324166 0.5623384817 0.1836567356
N -0.1343332232 1.7009105742 0.636280755
H -2.1862639114 -1.5775469838 -0.3290445641
H 2.2907968039 -0.0439693591 -0.2878576707
H 0.7068014513 2.2688707878 0.7410516114
