10
0
C -0.8421542507 -0.7304799225 0.0945621262
C -0.2697923339 0.6431799114 -0.0933362595
N 0.8402750681 0.81323141 -0.687634417
C 1.8200529928 0.9533495901 -1.3911257134
O -0.3494663229 -1.4055512745 1.2412177657
H -1.9353670113 -0.6583132258 0.1269222825
H -0.5696992635 -1.3581092638 -0.7546640151
H -0.7632447713 1.5223254831 0.3062064482
H -0.5492426796 -0.8782634525 2.0172096888
H 2.7941085723 0.9126667445 -0.8989559066
