9
0
N -0.7580319124 1.0527260653 0.287385609
C -0.7622225341 -0.1068530525 0.9989642601
N 0.1645984074 -0.9694006282 0.8973353448
C 1.8547733114 -0.0826712651 -1.6108959739
O 2.5994509281 -0.9134684518 -1.7374498176
H -1.603401083 1.5837047725 0.2065977421
H -1.6188628671 -0.1971767768 1.6750877051
H 0.0068496994 -1.7424689761 1.531866077
H -0.0801219497 1.1341883128 -0.4527829466
