15
0
C -2.0840087782 0.2047104313 -0.0763797659
C -1.1123508508 -0.2244453227 -1.1416034354
C 0.0579170951 0.576859837 -1.5304637871
C 0.746638419 0.4307227897 -0.2826955453
N 1.4994049701 0.902406006 0.5837676774
N 0.206984159 -0.788011428 -0.7732938765
C 1.9576850564 0.00905374 1.6331460737
H -1.5859524755 0.7849922601 0.70138303
H -2.8733866781 0.8200633551 -0.5119734955
H -2.5486797873 -0.6690066929 0.3841967842
H -1.5553685494 -0.8011521427 -1.9502739013
H 0.4655515636 0.7294737532 -2.520080517
H 1.4431882417 -0.9574800805 1.6341774335
H 3.0282226654 -0.1664682326 1.5103128914
H 1.8158189488 0.4954267271 2.5990744337
