15
0
C -2.1565133473 0.0747604164 -0.2181864308
N -0.7895895722 -0.4956513767 -0.2967312521
C -0.2568540412 -0.8853034719 1.0303902988
N 0.9079281419 -0.4952787526 1.253371516
C 1.3669577655 0.2425238992 0.1033567943
C 2.6572613127 0.615459315 0.0744859012
C 0.2545167151 0.4435520479 -0.7824074533
H -2.4535738307 0.3827696823 -1.2176607611
H -2.85544061 -0.6708740086 0.1694754087
H -2.1089437094 0.9496412464 0.4249516111
H -0.8977195383 -1.4618004633 1.6872813275
H 3.3005100284 0.3827531805 0.9097096717
H -0.850774582 -1.3526340215 -0.8589302248
H 3.0652207981 1.15845377 -0.7667697354
H 0.3725764695 0.410545537 -1.8574426721
