10
0
O -1.8450073275 1.6168550625 0.3027656174
C -1.2849652208 0.5733949 0.2993508305
C -1.2435013323 -0.879289541 0.017987839
N -0.0995982817 -0.0482206196 0.4792195229
C 1.1936711279 0.0883115702 -0.0173114936
N 1.7835557331 1.19820776 -0.019059513
H -1.5996762708 -1.6181355158 0.7275768022
H -1.2590807524 -1.1773963195 -1.0283627083
H 1.6041476887 -0.8656502313 -0.3623472646
H 2.7204486359 1.1042009346 -0.3976436325
