14
0
C -2.3039725035 0.3598418334 -0.5875800577
C -1.1143225209 0.3485101376 -1.5004238493
C 0.118983701 0.1323297547 -1.1145426028
C 1.3098780841 -0.0766578583 -0.7376875964
C 2.5520986441 -0.2912948507 -0.3686050228
O 2.973905042 -0.5386962878 0.8940077735
H -2.8110495923 1.3273793228 -0.623484915
H -3.0318344444 -0.3976180486 -0.8892274572
H -2.0146869624 0.163687618 0.4443412689
H 0.1939435166 -0.6901916928 2.7907752753
H -1.2889895701 0.5327569334 -2.5569482388
H 3.3743594161 -0.2871332133 -1.0738823617
H 0.0473080587 -0.5527716321 2.0716607938
H 2.2139391309 -0.5353610164 1.4841499903
