8
0
O 2.444728097 -1.2960918891 0.605411099
C 1.2348989684 -1.1496924898 0.144341556
N 0.091095724 -1.1450565775 0.0513345776
O -1.1120401971 -1.1020804793 -0.1460654463
C -1.9158519201 1.8603402909 -0.1994982011
N -1.9941185198 3.0022219042 -0.2146046987
H 3.091491544 -1.0216782339 -0.0544250575
H -1.8176276964 0.7843404744 -0.184180829
