15
0
C -0.5825694976 1.8013296878 -0.1973030474
C -1.0576490414 0.4106163597 -0.1302212917
C -1.4127825556 -0.7778709557 -0.9748212028
C -1.4675655907 -0.6275058932 0.5193596348
O 2.3562327858 0.0989763865 -0.5728792301
C 2.5502479377 -0.6589944617 0.3339485839
O 1.6196938656 -1.1370717781 1.1528927207
H 0.4121743025 1.8213085556 -0.6474411185
H -0.540511807 2.2602021298 0.7905622757
H -1.2458139606 2.3895422471 -0.8349580144
H -2.3388771418 -0.7608767879 -1.5485399448
H -0.6198884051 -1.3655922245 -1.4360481951
H -1.7480511883 -1.0954218655 1.4474695335
H 0.7495570571 -0.7803099463 0.886037096
H 3.5368602397 -1.0579154537 0.6066532
