12
0
N -2.342228895 -0.5434747703 -0.8445472249
C -1.2208537368 -0.1754206011 -0.4062183565
C 0.0553874778 -0.8777977426 -0.2212291547
C 0.9238783577 -0.005280655 0.2860463305
O 2.2071262098 -0.1162175832 0.6402466811
C 0.2625335265 1.3230753744 0.4620295431
O -1.0578041093 1.1185628976 0.0057893047
H 0.2545394966 1.6360160885 1.510268708
H -2.3147626458 -1.5211978341 -1.1101142656
H 0.2128279016 -1.9172777848 -0.4658797168
H 2.5203687808 -1.0102998609 0.4797755578
H 0.7507736359 2.1009574714 -0.1320884068
