12
0
O -3.0791196613 0.4566233211 -0.1977724565
C -1.8637429267 -0.1702501407 -0.4182284034
C 0.3070957493 0.1266358928 0.5744647994
N -0.775833076 0.5204423747 0.2630631836
O 2.4757222586 0.3276928664 -1.1998607084
C 2.6158812815 -0.0673248167 -0.0664191425
C 1.542706799 -0.2157596917 0.9115105299
H -3.0443943659 1.3451125869 -0.5604245008
H -1.959327065 -1.1869283026 -0.0362761558
H -1.5929368871 -0.2011897437 -1.4786533821
H 3.6161676424 -0.3556486256 0.3104526068
H 1.7399082511 -0.599857721 1.9025456298
