12
0
N 1.7644329232 1.8094543109 -1.549655817
C 1.3696230383 0.8544795632 -1.0531131059
C 0.8330680914 -0.3588317355 -0.4359264128
O 1.2432127046 -0.3741844078 0.9915964247
C 0.2901760938 -0.1484440923 1.8376274689
C -0.9670803878 0.0754254334 1.0484808516
C -0.6865114651 -0.4053045452 -0.3827190069
H 1.2989180302 -1.228578653 -0.8952170286
H -1.0273650816 -1.4303773158 -0.5231518959
H -1.8211780159 -0.4013813763 1.527374405
H -1.1448053958 1.1568595252 1.1056544549
H -1.1415035353 0.218513293 -1.1484873379
