17
0
C -1.3642217256 -1.4694354125 0.1478538378
C -0.3214097927 -0.8665193944 1.0244345537
C -0.7240988073 2.2601720414 -0.6343961908
N 0.8290147263 -0.5112664604 0.5802666632
C 1.6755936302 -0.6910438095 -0.5792985362
C 2.0543934502 0.0386824706 0.6650257216
H -1.001769271 -1.5575682677 -0.8769201033
H -1.6511302577 -2.4661477677 0.4928339496
H -2.2708735669 -0.8573618617 0.1393272627
H -0.523688505 -0.6587891568 2.0692191758
H -0.9711873529 1.4655004905 -1.3383180671
H -0.7388149885 3.2173604083 -1.1536527889
H -1.4620034882 2.2721538982 0.1670378536
H 1.4281155097 -0.1159210681 -1.4685782596
H 1.9312371576 -1.7361102569 -0.7657912126
H 2.7636367608 -0.2726563606 1.4200797441
H 0.266796521 2.0848245071 -0.2138196036
