15
0
C -1.9445565313 0.0107723931 0.019670709
C -0.5073499447 -0.2745196846 -0.3822541984
C 0.1513313107 0.804711968 -1.2909744681
C 1.0170781289 1.4472240324 -0.5460884984
N 1.5963659269 1.4240479014 0.5355257547
N 0.2997975723 -0.5481646194 0.8093968863
C 1.6572243808 -0.083773361 0.8150257429
H -1.9995095887 0.9474281033 0.5793806896
H -2.5717105692 0.1113328238 -0.865781759
H -2.3474022305 -0.7964953667 0.6358949353
H -0.4767144132 -1.1653176583 -1.0203194606
H 0.143753338 0.7220456875 -2.3646594907
H 2.2486133629 -0.5771868279 0.0426312215
H -0.1720217029 -0.2010066412 1.6335558653
H 2.10051596 -0.2363907502 1.7957880707
