15
0
C -1.9348935646 1.0488769513 1.5066665785
C 0.8188947716 -0.7971959441 -0.894216524
C -0.4143725794 -0.626868168 -1.706006496
N 1.3145392141 0.1400683637 -0.2040626699
C 2.5181289116 -0.0841113233 0.4699644868
O 3.5266987668 -0.486191362 -0.0415626743
H -2.5826783689 0.4281663368 0.8881342732
H -2.3656456797 2.0455426318 1.5907563621
H -1.8520762486 0.6052891983 2.49802533
H 1.2964975683 -1.7841458161 -0.9102826429
H -0.1999920313 -0.869085566 -2.7501452899
H -0.789904439 0.3917852486 -1.6350119519
H -1.183825764 -1.3266327617 -1.3704535386
H -0.9471993667 1.113209166 1.0513918741
H 2.4680018099 0.2092970445 1.5318788828
