14
0
C -1.9595653911 -0.0728913797 0.0810817277
C -0.5560714353 0.2096250372 -0.3920662498
N 1.1711110704 -0.7792857131 1.2188066199
C 0.541815103 0.3890936649 0.5993257304
C 1.9366542137 0.0300450093 0.2762519753
C -0.2772860942 0.3450289192 -1.665733231
O -0.0233701968 0.4559605772 -2.7921185835
H -2.319914954 0.7391421857 0.7176398538
H -1.9898797414 -0.994328859 0.6673072463
H -2.6544824695 -0.1808402204 -0.7512355816
H 0.8436970662 -1.622833163 0.7614397567
H 0.3771501124 1.1979552714 1.3061754837
H 2.7515951822 0.5962031708 0.7101258871
H 2.1421335345 -0.3777535004 -0.7082696348
