16
0
C 1.9148260143 1.3823272418 -0.9926654789
C 1.5080081357 0.771697674 0.3541634882
C 0.3496207526 -0.1582365244 0.2790902679
O -0.837554491 0.3701798643 0.3822972112
C -1.9914635423 -0.212412387 0.2588150445
C -2.041968002 -1.6513820265 -0.0196328812
H 2.1787761724 0.6025401224 -1.7100453569
H 2.7750116652 2.0468739919 -0.8819902413
H 1.09115884 1.9595399117 -1.4171646395
H 2.3600637351 0.2315823744 0.7768414599
H 1.2722405059 1.5730221274 1.060647939
H 0.4282223393 -1.1963163583 -0.0130057541
H -2.8293023227 0.4384159433 0.4443920482
H -1.5396130082 -1.9012051384 -0.9686609784
H -3.0708024412 -2.0023600622 -0.0690525825
H -1.5087023529 -2.2245427543 0.7586814539
