12
0
N 2.1959072831 0.1764037935 0.1683736312
C 0.9145543293 -0.3428220938 0.1379276769
C -0.1370932688 0.7045815486 0.1745901367
C -1.4003907373 0.4548976417 -0.0301754607
C -2.6571399006 0.2197859731 -0.235028669
N 0.6026948831 -1.5749131962 0.1302039711
H 2.9479079246 -0.4529697306 -0.052552523
H 2.3274703688 1.1170027903 -0.1596329251
H 0.1646765556 1.7256883916 0.3878363989
H -3.0787324854 0.2649465462 -1.2322336114
H -3.3124341902 -0.0475568771 0.5855279966
H 1.4266542379 -2.1696227875 0.090914378
