13
0
C -1.7709934149 0.3959552604 0.0944121744
C -0.6638439685 -0.1196981578 -0.4146507382
O -0.5927572015 -1.1776932403 -1.2687564464
C 0.7314080828 0.3822966318 -0.1181613047
O 0.7400590352 1.5922040192 0.5587899422
C 1.4810202834 -0.6769862642 0.6729912962
O 2.0132715227 -0.4072964847 1.7153734645
H -1.7048997193 1.2450202945 0.7566176639
H -2.7483663679 0.0006978412 -0.1552385476
H -1.4755106388 -1.5163877273 -1.4358585827
H 1.2486775689 0.4675147518 -1.0874985468
H 1.2445253063 1.4459792217 1.3715521734
H 1.5070865117 -1.6920471463 0.2438854519
