11
0
N 1.9665073326 -0.0596797126 0.0987599198
C 0.6040922401 -0.1004218997 0.0377465133
C -0.2500427908 1.0833624614 -0.2190939132
N -1.4721384815 0.7425959011 -0.2755513271
C -1.4699021099 -0.6961590196 -0.0632501844
N -0.1164235559 -1.1526505059 0.1346626316
H 2.4162637245 -0.8888040891 0.4470067655
H 2.399530095 0.8091617358 0.3530879163
H 0.0842014449 2.1083534413 -0.3484504544
H -1.9253636127 -1.1813120402 -0.9322670811
H -2.0946682863 -0.9320312727 0.8036722136
