9
0
C -0.8663706487 -0.2877029148 0.1142507729
O -0.4508126942 0.8614811129 -0.5414558294
C 0.936165814 0.934949564 -0.5199556191
O 1.5132503699 1.8378008138 -1.0220186258
C 1.4957455119 -0.2839018548 0.2197426629
N 0.401730671 -0.9026944693 0.5331007975
H 0.3996337349 -1.773514493 1.0435555781
H -1.4833993474 -0.0404776488 0.9816936287
H -1.4138934114 -0.9477591102 -0.5631303659
