12
0
C 1.3947467146 -0.0828059201 0.1026612951
C -0.0437475734 0.1557940601 -0.3484791977
C -1.779005897 -1.4174884925 0.5303598868
N -1.0121458213 -0.3714681769 0.6285394867
C -0.2930650874 1.5876321711 -0.5708336126
N -0.4739014309 2.7098805122 -0.7202170545
H 2.0965803946 0.3099029195 -0.6325836271
H 1.5617480393 -1.1531660011 0.219932712
H 1.5860246549 0.4103545657 1.0566311802
H -0.2382062903 -0.3679715968 -1.2863158875
H -1.6064294801 -1.8459463743 -0.4775334399
H -1.0412072231 0.1550533331 1.4946602585
