15
0
C 2.8882895758 -1.0855675785 -1.4381450543
C 1.8585619031 -0.230839442 -0.8584681275
C 1.0094993736 0.4660313644 -0.3778418399
C -0.057552564 1.3006287145 0.1918948138
C -1.4143685106 0.6963294084 0.0501039676
C -3.0718552879 -0.4494110416 1.2605076095
O -1.9575553739 0.1997652854 1.1054720732
H 3.8117449525 -1.0290332502 -0.8597133587
H 2.562604062 -2.1269812403 -1.4528079092
H 3.112329807 -0.7863538911 -2.4632807992
H -0.0291315584 2.2830995165 -0.2910793159
H 0.1359400415 1.4704316383 1.2539068634
H -1.9002645505 0.5351371791 -0.9057818532
H -3.3029850082 -0.7208010584 2.2747275023
H -3.6995068619 -0.6432956047 0.4019244281
