11
0
N 2.0175453292 -0.1151487841 0.1632992737
C 0.6542019094 -0.0944121268 0.0437648625
C -0.3172003818 0.7876079386 0.237365739
C -1.5956563511 0.048938943 -0.0044469525
C -1.1927540527 -1.3500613243 -0.3751054764
O 0.121831309 -1.3508730252 -0.318264724
H 2.4768605898 -0.7958091255 -0.4194170262
H 2.4633066964 0.7856913998 0.1592549526
H -0.2015379565 1.8214116758 0.5165874391
H -2.2200748704 0.4426213873 -0.8152281658
H -2.2628262211 -0.0257899588 0.863448078
