11
0
C -1.6644369842 -0.6635648666 0.300905239
C -0.1401983657 1.2605542528 -0.3327537389
C 1.2070173048 1.1548240935 -0.5152427045
C 1.6784277536 -0.1123425135 -0.0576833639
N 0.7703252052 -0.8851047759 0.4322766422
O -0.3833614423 -0.0094770837 0.3276992106
H -1.6630248635 -1.3828691107 1.114550472
H -2.3968635138 0.1226095787 0.4497807545
H -1.7933257901 -1.1502826441 -0.6631786858
H 1.8239949918 1.9208103338 -0.9550086708
H 2.6906037042 -0.4936882644 -0.0740751543
