13
0
C 1.7690908844 -0.2977915855 0.2463085979
C 1.443901315 1.8954575874 -0.8549089017
O 1.6106088103 2.9389020338 -1.3512961349
N 1.1526568803 0.8460686246 -0.3653512085
C -1.9328656015 -0.8841560283 -0.3742456453
C -1.982872351 -0.2771465724 0.79945969
H 2.4181504402 -0.8128438342 -0.463494279
H 2.3569196593 -0.0030970911 1.116901277
H 0.9893257128 -0.9861617832 0.5667048263
H -2.5856290293 -1.715824455 -0.6144023702
H -1.2377099989 -0.5646905083 -1.1428972369
H -2.6786745542 -0.5846244559 1.571911239
H -1.3299231674 0.5581060682 1.0276681463
