21
0
C -1.7221178518 -0.919089591 -0.1610183563
C -0.4983769042 -0.1607948488 -0.6613213482
C -0.5905223316 1.3287297168 -0.4627862785
C -1.5353074353 1.9883337841 0.1909485759
C 0.8180186637 -0.7428829069 -0.0876829383
C 0.9314940637 -0.5753938441 1.4250385898
C 2.0533405766 -0.1770481882 -0.7848314661
H -1.6054462488 -1.9895137347 -0.3424155939
H -2.6263217609 -0.5879174572 -0.674730758
H -1.8817514255 -0.7800425918 0.910035648
H -0.4399451366 -0.3187030444 -1.7468096168
H 0.2111881455 1.9059648538 -0.9169418102
H -2.3714406905 1.4885595989 0.6659619956
H -1.5065491405 3.0683047203 0.2718258709
H 0.9271566835 0.4817341374 1.702249049
H 1.8621668981 -1.0137516991 1.7914510379
H 0.786121237 -1.8171628377 -0.3051993936
H 0.1095457625 -1.0609290801 1.9533179192
H 1.9695189885 -0.2513833186 -1.8720311502
H 2.2158947458 0.8730644392 -0.5306312272
H 2.9485541611 -0.723960108 -0.4818177494
