14
0
C 2.0653036942 0.4407844153 -0.1328331788
O 0.6472134171 0.4308382083 -0.1752908489
C 0.0244885305 0.4048791986 1.0090403691
C -1.3046699908 0.3467274641 1.1383289544
C -2.228653275 0.2980650634 0.0063728839
O -3.4295551822 0.2506884376 0.1280362594
H 2.4061787967 0.4802582189 -1.16437531
H 2.4470040548 -0.4682491872 0.3389892631
H 2.4321164293 1.3199738787 0.4030960491
H 0.6721031654 0.4344051939 1.8838927641
H -0.1497849506 -2.7098324355 -1.1082016951
H -1.731238462 0.3351522216 2.1323645015
H -0.0070232643 -1.988960364 -0.9828914953
H -1.7637099631 0.3053996864 -0.9971105165
