13
0
C -1.3078874147 0.4898770767 0.7133944038
C 0.4014829909 -1.467678296 -1.7343826441
C 0.0325280623 0.9280210876 0.1168256565
C 1.0772592188 -0.1392845738 0.2889069255
O 1.8603055844 -0.1748965816 1.1956103281
N 1.1186098085 -1.2170077115 -0.6641824515
H -1.7074135482 -0.3905682916 0.2082329179
H -1.1978224299 0.2536010786 1.772382529
H -2.0389816005 1.2924147939 0.6180977884
H -0.31985649 -0.6380721427 -1.8427915356
H -0.0842035571 1.1899902157 -0.9352402053
H 0.4114226791 1.8028056771 0.6435157265
H 1.8435316962 -1.8791323323 -0.4034764393
