17
0
C -1.4761024783 -0.7455261837 0.3250086699
C -1.9172538898 0.1399941205 -0.7220470161
C -0.5434004656 0.3608980271 -0.4196677471
C 0.6082025403 -0.2422520106 -1.2765726103
C 1.0402662203 -0.7773630983 -0.0087194757
C 1.2744465413 0.3087180502 1.0011079279
C 0.1547601148 1.2812283154 0.5653613688
H -1.3541940962 -1.8137283503 0.1424846518
H -1.5710130154 -0.4838750269 1.3739756218
H -2.2091455546 -0.2565512809 -1.6881500966
H 0.5192082479 2.1798281516 0.0605175252
H 0.2770692147 -0.9757714628 -2.0067412118
H 1.1897641543 0.5532799683 -1.7454353742
H 1.1879998441 -1.8308035443 0.1819528022
H 2.277254837 0.746004918 0.9429105143
H 1.1298473874 -0.0487375009 2.0215720028
H -0.4970526022 1.5935789072 1.3799584468
