13
0
O -0.2166721107 0.3951255035 1.1563071412
C 0.5359004816 -0.6761178478 0.5336620342
C -0.4225133884 -0.6491912106 -0.6754100595
C -1.1188612377 0.4247053383 0.1151093683
C -2.1892659213 1.1856660633 -0.0005478516
C 1.928737118 -0.3344461179 0.2909880074
C 3.0743939153 -0.0639324298 0.0770373408
H -2.4515273747 1.8983116692 0.7691476117
H 0.4709966435 -1.581151102 1.1412257288
H -0.9906180351 -1.5623322697 -0.8394852296
H 0.0329368667 -0.3140699686 -1.6046960742
H -2.8133491205 1.1038349804 -0.8785561467
H 4.0935131637 0.1824373916 -0.1079378709
