14
0
O 1.4337562797 2.3328924475 0.5086907313
C 0.8237245748 1.3017580689 0.3060395738
C 1.4197807664 -0.0366797825 0.555744279
C 0.8315789331 -1.1529525102 0.1416712247
C -0.4967888587 -1.1268053892 -0.5538332608
C -1.2859713079 0.1103135608 -0.1551006494
N -0.4386458337 1.2868691556 -0.2142461432
H 2.387841804 -0.0287396348 1.0389703787
H -0.3317517038 -1.141837098 -1.6374031051
H 1.3250013074 -2.1108872882 0.2709342437
H -1.074096041 -2.0214824351 -0.3124415666
H -1.6906345345 -0.0281689049 0.8562383702
H -2.1302940708 0.2575211734 -0.8294138909
H -0.8719223152 2.1934996365 -0.2745961853
