15
0
C -1.1832899891 1.5495857589 -0.4231361921
C -0.0262871062 0.8944617032 -1.063303513
C -0.1741897329 -1.6511054047 2.3623791976
O 0.4397682808 -0.6191163872 2.3343450724
C 1.1553550733 0.9651387069 -1.599335066
C 0.6013334044 -0.393822871 -1.4254360676
O 1.0950443707 -1.2786958051 -0.4467308599
H -1.0857481013 2.635190608 -0.4392658401
H -2.1100155089 1.2672268488 -0.9267817005
H -1.2632678885 1.2244583017 0.6164708118
H -0.2511930346 -2.2962275636 1.4704250753
H -0.6817393596 -1.989901149 3.2835622426
H 1.9943189431 1.5688790688 -1.9038964266
H 0.2615732503 -0.9884267253 -2.2706756084
H 1.2276083983 -0.7806020905 0.3697738743
