19
0
C 2.3061015419 -0.2390014732 0.9331399239
C 1.6760072571 -0.4911503596 -0.4308985547
C 0.3328727696 0.1851926396 -0.5821146389
C -0.7199320969 -0.3767922259 -1.5363066599
C -0.8777910972 -0.4660849176 -0.0841111865
C -1.5929153733 -0.8791659715 0.9412457647
O -2.5611787194 2.2592733539 -0.1916963103
H 3.2742463013 -0.7351817988 1.020011484
H 1.6627680719 -0.6134884613 1.732421148
H 2.4625723336 0.8288173488 1.1041129672
H 1.5469732175 -1.567146506 -0.582942767
H 2.3445958408 -0.1418587833 -1.2235266591
H 0.3499762164 1.2702999323 -0.5135184662
H -0.4732922964 -1.2827036355 -2.079889767
H -1.3371028171 0.3300707701 -2.0785540462
H -2.4017969151 1.3724471578 0.1496155958
H -1.2633732829 -0.7106527468 1.9607914674
H -2.5273200671 -1.4110088811 0.7997826164
H -2.226806885 2.8492465582 0.4848610885
