14
0
C 2.0485254579 -0.1218630732 -0.4475530365
N 1.8790622529 -1.1944661619 0.4947961005
C 0.6750188951 -0.5047559192 0.0057649686
C 0.0756922945 0.4611862806 0.9337914779
C -2.0686873682 0.2659246765 -0.3554751548
N -1.1781203762 0.7537613166 0.7008680679
H 2.3517315262 -0.4165556278 -1.4450041296
H 2.4319195937 0.8288195413 -0.0956417684
H 2.0591104087 -0.8483217419 1.4327357927
H 0.0857379928 -1.1195443232 -0.6712175012
H -2.243231081 -0.8061393185 -0.2551759099
H -3.0250077682 0.7805582696 -0.2779826575
H -1.6477210868 0.4662955368 -1.340892525
H -1.5990027415 1.4182185442 1.3305422753
