14
0
C 1.2379231434 -0.5358355479 0.9837392353
C 0.5627307559 0.6540815396 0.2453581276
O 1.5338822556 1.5727788501 -0.1984123336
C -0.1331976494 -0.0419274589 -0.8267953656
C -1.464154914 -0.5725712959 -0.4117050125
O -2.1811591287 0.5348722081 -0.9613732733
H 1.735981911 -1.2087766193 0.2824499332
H 1.9999299607 -0.1019001292 1.6292408233
H 0.5309558128 -1.1009397003 1.5910777417
H -0.0979630236 1.1745010838 0.9505939495
H 1.631957753 1.4225162014 -1.1434793595
H -2.0306592552 0.53508539 -1.9132260095
H -1.6974285545 -0.5851293633 0.6580276146
H -1.7478870672 -1.524724158 -0.8649170712
