14
0
C 1.5455689285 -0.7104504984 0.4173065273
C 0.4217455943 0.2221977917 0.0024169574
C 0.2079998978 0.2239621334 -1.4984293509
O -0.5865632292 0.9206241055 -2.0723342127
C -0.8801609835 -0.078530086 0.7707422566
O -0.9162467865 -0.9183640815 1.641179528
N -1.9351658914 0.6974567652 0.4327353749
H 1.7222022376 -0.6450271612 1.4886489084
H 1.2934510283 -1.7477827863 0.1931972849
H 2.4691677673 -0.4539230257 -0.105443212
H 0.6743198044 1.2596640127 0.2532163467
H 0.8562431522 -0.4688786021 -2.071536107
H -2.8222660067 0.4778081695 0.8503353456
H -1.9080535131 1.2324972634 -0.4202126471
