8
0
N 1.6593615873 1.3739539441 -0.9578384376
C 2.1308638765 0.4402939211 -0.4938778402
C -0.2583375536 -0.9325224759 0.7794875008
C -1.3674594396 -0.2549771181 0.0497769337
O -1.1039126263 -0.2857460262 1.4852509279
H 2.5534399662 -0.4389214979 -0.0570404235
H -1.1892500429 0.7081277739 -0.4103124886
H -2.2392617675 -0.8226905208 -0.2480241727
