19
0
C -2.0345647695 1.8388606983 -0.9188625719
C -0.0754416217 -1.7608342623 1.1610105246
C -0.6094981483 -1.6516553087 -0.2332999411
O 0.3288480023 -0.8405136076 -0.9202301514
C 1.4326735404 -0.5112089957 -0.0775645327
C 1.6265743344 0.994730891 -0.0322946101
C 1.0811568976 -1.1289254073 1.245411151
H -2.9656121769 1.7955158494 -1.4824446691
H -1.3257719175 1.1116870971 -1.3132132936
H -1.6102200587 2.8390187734 -0.9993953437
H -0.5824856771 -2.2921159012 1.9549357079
H -0.6875473332 -2.6308822549 -0.7233712604
H -1.5993661771 -1.180791397 -0.2701814861
H 2.3380528056 -0.9763565092 -0.4935979945
H 1.7697484907 1.3855254668 -1.040453225
H 2.5045500852 1.2505773801 0.5650650593
H 0.7505864862 1.4755805349 0.406035351
H -2.2356386533 1.6176122278 0.1293582528
H 1.7079018908 -1.0429822748 2.1228610331
