10
0
O -0.7632791443 0.0217711933 -1.4048485368
C -1.1480120192 0.77330464 -0.2462980485
C -0.1966140312 -0.3366932866 -0.1721362311
O -0.543043915 -1.5708203394 0.3271250275
C 1.2228823137 -0.0811842574 -0.0039965923
C 2.3845859083 0.1572386506 0.1417038375
H -1.4183412611 -1.7906530532 -0.0045808457
H -2.1655330922 0.6051043074 0.0962441644
H -0.7984042588 1.8004398132 -0.223829353
H 3.4219064997 0.3614403319 0.2672515778
