10
0
O 2.6428626895 -0.3874424797 -0.0965918643
C 1.6640157186 -0.0678326768 0.5120288385
C 0.7291976312 1.0189021795 0.0020699582
O -0.0950179001 1.5247668807 0.7129920764
C -1.8153495968 -0.8796806512 -0.241151027
O -0.7332289808 -1.1641234139 -0.6747452751
H 0.9049589627 1.3274048336 -1.0445207919
H 1.3829134674 -0.4994428269 1.4915190521
H -2.6871376974 -1.5373763672 -0.4031348127
H -1.9806642941 0.0488165221 0.335018846
