14
0
C -0.6536144767 -1.0308199318 -0.1333962104
C -0.5257283319 0.4100993918 -0.6388009702
C -1.2487822897 1.4638455693 0.0751559087
O -1.4452251746 1.4652547935 1.2724892398
C 0.6099710241 -0.3177346733 0.1059425208
O 0.9457590715 0.1056061179 1.3813129422
N 1.7268428192 -0.6730338437 -0.6885648589
H 0.1625205682 0.5060520271 1.7892141381
H -1.3145286814 -1.1630325207 0.7142698936
H -0.6846830241 -1.7967125708 -0.8952179524
H -0.3901314727 0.5486364869 -1.702350781
H -1.6078015312 2.3102899668 -0.5385074395
H 2.1631442188 -1.5061969677 -0.3145213934
H 2.4129502805 0.0707761545 -0.6711900373
