14
0
O 1.992121309 -0.3113822952 1.7510050619
C 0.7873879582 1.0482290878 -1.2676248445
C -0.1039940084 0.4398017731 -0.5164866136
C -1.111018214 0.5172222841 0.5470468922
C -0.8306636896 -0.7840012267 -0.2040281878
O -1.7355698938 -1.2592024869 -1.1505077145
H 2.6593157461 -0.9695806583 1.5529060111
H 1.3065658183 0.5184184759 -2.0583051927
H 1.0093030828 2.1013680327 -1.1359817475
H 1.8204622987 0.1355152814 0.9154755595
H -2.0338735336 1.0328054575 0.3038684637
H -0.7920327797 0.5810251476 1.5813183204
H -0.2944811856 -1.5462284153 0.3581351567
H -2.4557859085 -1.6906414577 -0.6860301648
