14
0
O 2.9402899786 -0.9255952175 -1.2472390562
C 2.7620669144 0.1683753187 -1.0626663307
C -0.3432077431 0.1393409875 0.1442691309
C -0.8641962717 -0.7470538461 -0.9011053753
N -1.3900333929 -0.8365788585 0.4755225861
C -0.4258216274 1.6148170329 0.3193137935
C -0.0542228801 -0.9390667688 1.0949951044
H 0.493319864 2.096007217 -0.0190984729
H -1.5780415709 -0.3455181344 -1.6124772413
H -0.2524885312 -1.5709600723 -1.2669430584
H -1.2595680552 2.0198479217 -0.2565517249
H -0.5796930932 1.8645947508 1.3703909598
H -0.0490106313 -0.70654463 2.1546813786
H 0.5854030401 -1.7685877011 0.7954663067
