13
0
N -1.1026136252 -1.3345108978 -1.7237215386
C -0.7916212187 -1.1427204655 -2.8677473925
O -0.6016852243 -0.9884857001 -4.0071110727
C -0.4054719913 1.2406304714 0.9269470756
C 0.8623754981 0.4205435306 0.9262476263
O 0.5235868777 -0.9306236403 0.6128390814
H -0.5393497497 -1.2253273546 -0.8808939329
H -0.888963957 1.2108781673 -0.0506153443
H -1.1082482118 0.8592905738 1.6686302201
H -0.1793947281 2.2809815015 1.165345212
H 1.5715192016 0.8094887648 0.1866398793
H 1.343027296 0.4586412141 1.9094622468
H 1.3052188326 -1.4804191654 0.6868639397
