12
0
C -0.3294647074 2.0800568456 0.3445417709
C -0.6185758372 -2.6047964889 -0.1538861121
C 0.0822715983 -1.5061363855 -0.0282083611
C 0.754460071 -0.4417046875 0.0932475457
C 1.5046822874 0.6335906844 0.2176172121
O 1.0751474364 1.8988260854 0.343562184
H -0.7852801589 1.5489361054 1.1845098031
H -0.5006831772 3.149333659 0.4419418928
H -0.7653992323 1.7111264561 -0.5877063098
H -0.1310424218 -3.5674390486 -0.2461796618
H -1.7012302376 -2.5776357814 -0.1668611683
H 2.5872303794 0.5784375561 0.2278542045
