13
0
C -2.0834927794 0.3562991456 -0.0607483945
C -0.6724180551 -0.0856463144 -0.2059215742
N -0.3561074828 -1.0274110489 -0.9995039206
O 1.0327220196 -1.2359902757 -0.9372127631
C 1.6043017373 -0.3663143906 -0.0448055161
N 2.8274361748 -0.3178164318 0.2226850541
C 0.5023045751 0.4810330207 0.5205313453
H -2.7295662404 -0.2346499916 -0.7069886936
H -2.41280822 0.2436584349 0.9744821268
H -2.1821335285 1.4119542543 -0.322749298
H 0.6620562547 1.5399295201 0.3103264409
H 3.3490852009 -1.0103334089 -0.3093100755
H 0.4246373439 0.3678094864 1.6033442685
