14
0
C -2.0604653742 0.2011934609 0.089425643
C -0.9490788722 0.7299315628 0.5756561414
O 0.2063814314 -2.1280667318 -1.124207498
C 0.2325149953 1.1339957349 -0.2666604002
C 1.4793064033 0.5247688664 0.1974921314
C 2.4859323086 0.0085279862 0.5920530631
H -2.1817652317 0.0098785422 -0.9718136972
H 1.0264873325 -1.7262756787 -0.823351198
H -2.8901993081 -0.054065513 0.7369385444
H -0.8512572726 0.9064070137 1.6431357178
H -0.4235645858 -1.916966137 -0.4308633735
H 0.0614471178 0.8581692096 -1.3096150743
H 0.3492791457 2.2220633193 -0.234585871
H 3.3869299099 -0.4341916356 0.9465618712
