11
0
C 1.06719984 -0.7466861194 0.4419907731
C -0.1822583367 -0.0532425178 0.9283389214
O 0.0022391721 1.5958757741 -1.836819948
C -1.3832741766 -0.5598589156 0.7959759948
O -2.4452846357 -1.0011267881 0.6620755395
H 1.631343826 -0.0975000943 -0.2290322714
H 1.7113391946 -1.0191318886 1.2796707901
H 0.8237569623 -1.6570020476 -0.1052090922
H -0.1263162436 0.8732059474 1.4871426806
H -0.6595419877 1.4544134856 -2.5146910358
H -0.3396616149 1.1573761644 -1.0499743522
