14
0
C -0.3456393461 -1.1371561458 0.6322478432
C -1.1054742914 0.5575301989 -0.9792694883
O -0.774237628 1.4094910019 0.1018374495
C 0.6021650373 0.9288217487 0.0221658598
C 0.754179234 -0.146276698 1.0741235118
N -0.6756722714 -0.8088617417 -0.7667007393
C 0.2764328115 0.172708261 -1.2763698895
H -0.0112726676 -2.1734473819 0.6708217393
H -1.2431446001 -1.0465680978 1.2438951982
H -1.9927288904 0.7806974982 -1.5558984708
H 1.3150707913 1.7503290991 0.0127224864
H 1.7510362443 -0.592652707 1.0313369805
H 0.5886308875 0.2458246726 2.078060457
H 0.859412689 0.0173582921 -2.172247938
