13
0
C -2.5695820998 0.1123815851 0.6123794152
O -1.7745854734 -0.2542098242 -0.5015934522
C 0.5209494787 -0.6299007844 -0.6926791732
N 1.5765931869 -0.5022574955 -1.3098408657
N 2.5436553766 0.3879957607 -0.7612325597
C 2.5579812976 0.8045137279 0.4593196425
C -0.6344181535 -0.9088663796 -0.1546391425
H -3.4787081735 0.5575408869 0.2137702661
H -2.8307361363 -0.7656941844 1.2136883173
H -2.0470778429 0.8376572211 1.2424427304
H 3.2331477785 0.5737900119 -1.480208636
H 3.4526346151 1.4425484431 0.5430642272
H -0.700080854 -1.6966889687 0.5919582304
