17
0
C 2.6110449058 0.3900055104 -0.7112572422
C 1.4149438671 -0.1597931194 -0.5720098852
C -1.1228476958 -0.7516234823 2.0224543864
C -1.361968769 -0.4852489147 0.7452497813
O -2.0775123167 -1.3747254618 -0.0048821647
C -0.877256409 0.7356775536 0.0192503055
C 0.1421809859 0.4344231093 -1.0926212994
H 3.5010481717 -0.0789267223 -0.3098329018
H 2.7442217244 1.332214136 -1.2336683531
H 0.3606937754 1.3586956811 -1.6325166643
H 1.3196210525 -1.101676597 -0.0375336839
H -0.5350722971 -0.0701170816 2.6191939847
H -1.5048804049 -1.6533100552 2.4817224195
H -2.2573771302 -1.0010137067 -0.8693524307
H -1.7416524748 1.2501103507 -0.4179353075
H -0.4335189284 1.4208343193 0.7420790557
H -0.2990990565 -0.2534085194 -1.8236860003
