9
0
O 2.2765497612 -0.2187310789 0.3884550964
C 1.083240622 -0.3841529265 0.2862259203
N 0.3960020646 -1.5196130434 0.6063066762
O -0.9570180446 -1.2179631432 0.3150085492
C -1.1601159607 -0.063832157 -0.1337903642
C 0.0898950288 0.6749621821 -0.2380364285
H 0.315754538 0.9703488685 -1.2658160588
H -2.1850774776 0.2010150166 -0.3669379929
H 0.0960824684 1.5823282819 0.3706916026
