16
0
C -0.6912158787 -0.8558978125 1.326745749
C -0.5300526117 0.4395260973 0.5572478868
C 0.7876066729 1.2359004277 0.6567575022
C 0.7736301406 1.5494754556 -0.8099268618
C 0.3760302613 -0.8157305099 -1.5694882229
C -0.2545909205 0.4428919629 -0.9731585313
H -0.7263531849 -0.6650229803 2.4018225244
H -1.6162776829 -1.3679605979 1.0511403131
H 0.137882711 -1.5421160451 1.1400270349
H -1.3749265602 1.0976503699 0.7699097594
H 0.955429462 2.0404073106 1.3751796436
H 1.6380680143 0.5409418695 0.7568469528
H 1.2518972435 -1.1447929849 -1.0071271873
H -0.3455421898 -1.6340961846 -1.5740402761
H 0.6922076859 -0.6255368202 -2.5955554624
H -1.0840691631 0.745187442 -1.6207518243
