13
0
C 2.0948169111 -0.0272654367 0.1056550999
C 0.6426499118 -0.0705389116 -0.1825882949
N 0.1639439135 -0.1258457925 -1.4486322796
C -1.1751289663 -0.138771749 -1.4173913688
C -1.5752230585 -0.1883907598 0.0556420395
O -2.4821888296 0.8020706872 0.4121282976
N -0.2885555479 -0.0398797913 0.7414442829
H 2.5638140557 -0.9042419682 -0.3414649705
H 2.3163032069 0.013436386 1.1706737851
H 2.515581039 0.8470216276 -0.3924030444
H -1.9666012944 -1.1872978409 0.2945650189
H -2.7535803883 1.2224430386 -0.4118790306
H -0.1306559531 -0.0385504892 1.7341534648
