11
0
C -1.7670093039 -0.5254337726 0.001784095
C -0.3479651313 -0.0750942948 0.0117409284
N 0.6398312655 -0.9272988672 0.1657235549
N 1.7502972789 -0.2095007818 0.211306093
N 1.409244045 1.097115284 -0.0630557872
C 0.1085836162 1.2963004547 -0.1321480797
H -2.2957253637 -0.1400198027 0.8753168505
H -2.276261544 -0.1389748972 -0.8818249283
H -1.8264524181 -1.6130922237 0.0061911768
H 2.5968275705 -0.6077605413 -0.1664891917
H 2.1324399849 1.7970574427 -0.0336207117
