13
0
C 1.5981125003 0.7545380912 0.3136071106
C 0.3503142097 -1.0992745323 -0.8772417023
C 0.3401642275 0.3587496005 -0.459148158
C -0.9594256666 0.5716893396 0.2713933809
C -1.6137532024 -0.5806082698 0.258202456
N -0.8111161268 -1.5359548037 -0.43231386
H 1.6655301382 0.1946612184 1.247860784
H 2.4855483914 0.5346411491 -0.2790223457
H 1.5891706248 1.8188895255 0.5546807459
H 0.3249317692 0.91936691 -1.4053870441
H -1.2996818465 1.49350465 0.7189013275
H -2.5767155493 -0.8570515207 0.6625599759
H -1.1112694695 -2.4888163576 -0.5632256707
