21
0
C -2.206872229 0.997207396 -1.9335813944
C -1.8122687621 -1.4969117415 1.5158829384
C -0.7524420662 -1.6204322274 0.7320912649
C 0.585115914 -0.997267807 0.9859931185
C 0.9804564783 -0.0325456617 -0.1180323764
O 2.2920007456 0.4125023726 0.1174588257
C 2.7327330366 1.3278428371 -0.8483009076
H -3.1745012792 0.9453699393 -2.4305741905
H -1.4360740382 0.6137201911 -2.6012523021
H -1.98490238 2.0338720637 -1.6829725659
H -1.7751353871 -0.9176184837 2.4327495946
H -2.7541596004 -1.974299588 1.273937371
H -0.8384587487 -2.2113990717 -0.1780477409
H -2.2296594158 0.3996413489 -1.0231462944
H 1.3524865941 -1.7756921426 1.0437015983
H 0.5856095109 -0.4710433545 1.9430120676
H 0.9195215433 -0.5298053686 -1.0991176978
H 0.2861365368 0.8201753231 -0.1440358138
H 2.7226591619 0.8863119662 -1.8540788019
H 3.7550785527 1.606335955 -0.5955950399
H 2.1096758325 2.2321270534 -0.8610836536
