11
0
N -1.7364426973 -0.6257734804 0.071181301
C -0.8262129023 -1.4695655224 -0.4209873917
N 0.3572673862 -1.6186207843 -0.2806084109
N 1.5788532302 -1.6811594321 -0.5261217514
C 0.9553843067 1.5756797199 -0.040376636
C 0.3309423951 2.4773439376 0.4381921427
H -2.6742807118 -0.6917941823 -0.2746076829
H -1.4393032276 0.2701784893 0.4302304952
H 2.0121767781 -2.2727380124 0.1858575418
H 1.5081387083 0.7565886131 -0.4540581801
H -0.2027322654 3.296984654 0.8599275726
