15
0
C 0.6632525011 1.2601855604 0.2600476601
C 1.1027570631 -0.0745879312 -0.2954422508
C 0.2369881038 -1.2391262523 0.0432531292
O -0.8471374157 -1.0789532145 0.9044840882
C -1.4544785115 0.2001678498 0.9185521779
C -0.7230950479 1.4371084008 0.7074789012
C 0.2406847205 -0.7192951359 -1.3607273484
H 1.1169225625 1.4207385674 1.2632284184
H 1.0182527058 2.1134535964 -0.3235942881
H 2.1727060874 -0.2353305371 -0.3567895799
H 0.6993842884 -2.2000685216 0.2252277788
H -2.065277878 0.2386969875 1.822945958
H -2.1928465805 0.3131439694 0.090920884
H -0.6164866422 -0.1588697984 -1.7134272103
H 0.7176560432 -1.3218745408 -2.1219693183
