14
0
C -1.7584944002 -0.4550808807 -0.0549069643
C -0.3922939951 0.168640533 0.0612175719
C 0.655064969 -0.4405056243 -0.8127941063
C 1.883521471 -0.6362169455 -0.4089424145
N 3.0509187644 -0.7185919231 -0.075684067
O 0.0319832178 0.4692947397 1.3802617432
C -0.2542778859 1.5574361763 0.512127149
H -2.4617204828 0.0426926101 0.6122943424
H -2.1309836385 -0.3753618601 -1.0784056057
H -1.7131357032 -1.5128740322 0.2103706807
H 0.3902537478 -0.7559861738 -1.8141240927
H 3.3180235816 -1.580313307 0.391827223
H -1.1406028002 2.1323981057 0.7690276312
H 0.6097621542 2.1329975818 0.193621909
