12
0
O 2.8447210153 -0.1328822445 0.6622547912
N 1.653354789 0.5621469224 0.5931523651
C 0.8485915874 0.0342827625 -0.2255866816
C -0.4490267305 0.7259705617 -0.473069948
N -1.5956622884 -0.1756590648 -0.3431026048
C -1.510832241 -1.393270259 0.1020598458
H 3.3377470504 0.33943234 1.3361422364
H -0.4586997583 1.1407979005 -1.4870072038
H -0.5526936703 1.5554554989 0.2285456464
H -2.4704604422 0.2563326379 -0.6304341117
H 1.0964112985 -0.8736569457 -0.7692877751
H -2.53569061 -1.8040411098 0.0893024402
