12
0
O 2.816477667 0.5121150581 -0.6049069282
C 1.7526811967 0.9921407976 0.0149246677
C 1.5144156508 -0.2418498083 -0.6855058707
C -1.6631280383 -0.8596614105 0.7541659642
C -1.7351510729 0.2753707649 0.0783037322
O 1.453089458 1.9200229085 0.6834231545
H 1.0650782421 -0.2372415339 -1.6715080564
H 1.521600435 -1.1864317755 -0.1548033819
H -2.1464389854 -1.7648628761 0.4038929947
H -1.1246992265 -0.9241549084 1.6933387525
H -1.2529413971 1.1792533091 0.434195713
H -2.2831539295 0.3437214745 -0.8550697416
