17
0
C 2.0072753433 0.6559265577 -0.0940631615
C 1.1709886242 -0.604030227 -0.1741985992
C 0.7056496754 -1.1939230318 1.0700722864
C -1.4362259579 0.0370987718 0.5311372387
O -2.6214895514 -0.6780800326 0.3851545575
C -1.0046308538 0.9449050645 -0.5538940739
C -0.3483814469 -0.4148557974 -0.457649487
H 3.0429597202 0.3902916849 0.1250396087
H 1.6614891735 1.3024474574 0.7141267974
H 1.9930504877 1.2132565273 -1.0340006444
H 1.533761696 -1.268951641 -0.9641037978
H -1.1616112418 0.2813745937 1.5469142842
H 0.3724619574 -2.2231772182 0.8502118811
H -3.3417347898 -0.138131182 0.7170631801
H -1.6742399051 1.0688082252 -1.3948587263
H -0.4127081981 1.8114799327 -0.2915300713
H -0.7439707326 -1.1542756854 -1.1395522729
