19
0
C -2.2706714841 0.903951881 -0.0595761051
C -1.0854360921 -0.0086800653 -0.2075204979
C -1.040268572 -0.9368817911 -1.1555774669
O 1.5172083775 -1.6722525067 0.4036592638
C 1.4193305081 -0.2624211751 0.5600294468
C 2.0525253996 0.3690845754 -0.6646356136
C -0.0092346911 0.214629666 0.8311718197
H -3.0542536001 0.6637962145 -0.7778098958
H -1.9775251588 1.9476819939 -0.2065438939
H -2.694562982 0.8336733721 0.9469295738
H 1.0721366235 -2.0961974007 1.1397778401
H -1.8618374057 -1.0477050558 -1.8545812121
H -0.2002026063 -1.6095918425 -1.2610331714
H 2.0132490606 0.0357678262 1.4365956609
H 3.073401118 0.004571708 -0.7815701958
H 2.0833569588 1.4549217401 -0.557339074
H 1.4920953735 0.126701473 -1.5668873805
H 0.0484538019 1.2888399449 1.0417369907
H -0.354548629 -0.2319025577 1.774231911
