13
0
C 0.8030049541 0.8010872901 1.4394554821
O 0.9987335229 -0.5085936533 0.9477667158
C 0.291573918 -0.9243647143 -0.1405545481
C -1.114821564 -0.7282193833 -0.5189797111
O -1.5611759739 0.6024294181 -0.2144910931
C -0.7183177881 1.1774424208 -1.0930951218
C -0.0416917202 -0.1204669225 -1.4176115369
H 1.5854109253 0.96469963 2.1776505429
H -0.1781269452 0.9148705866 1.9050785041
H 0.6336457972 -1.9172147937 -0.4184938553
H -1.8687234699 -1.4786241078 -0.7130331202
H 0.8963610335 1.5427045754 0.63512928
H 0.3659843103 -0.4040143461 -2.3754075381
