10
0
O -0.1404435953 1.8276184813 0.7510146026
C -0.0860743415 0.7168336826 0.285975223
C -1.2489411925 -0.2365501404 0.2698313539
C 1.6464889787 -1.2015998324 -0.1183048238
O 1.1585673046 -0.8588277613 -1.2386541589
C 1.2096772834 0.2409642798 -0.2692308873
H -1.4983078455 -0.5193565421 -0.7550713679
H -2.105505163 0.2344450939 0.7445961504
H -0.9876798296 -1.1569249808 0.7998906208
H 1.9612574005 0.9888977195 -0.4860247128
