15
0
C -0.2169543483 1.0005040223 -0.3425099459
C -0.8625531043 0.1430363972 0.7447206436
O -2.1125211986 -0.3089758129 0.2539751737
C 0.1519960626 -0.9845807346 0.9042525481
O 0.6911773704 -1.1740934016 -0.3911900253
C 0.8432829178 0.0944396079 -0.9761656205
O 2.1060438294 0.6453822582 -0.6941667624
H -0.9734424117 1.3123620778 -1.0598810371
H 2.7723167865 0.0514449362 -1.0478451825
H 0.2659183471 1.8853093345 0.0692134629
H -0.9970883414 0.6956861953 1.6810266336
H -2.4904189811 -0.9243981651 0.8845093387
H -0.2921618702 -1.9264449506 1.2302243319
H 0.9364393906 -0.6955955984 1.6145445336
H 0.7225805511 -0.0487531663 -2.0535030924
