13
0
C -2.0050260218 -0.1004220572 -0.4706124485
C -0.5647935574 0.1242757698 -0.2049475876
O 0.1077128524 -0.8962875954 0.4314573283
C 1.3843470052 -0.4961808903 0.5734696458
O 2.2157106546 -1.3544536487 1.17586138
C 1.5830227425 0.734754163 0.0620765403
C 0.2966230328 1.1317683375 -0.4453810198
H -2.5592953639 -0.2764100683 0.4541690525
H -2.4245167653 0.7795908808 -0.9563695516
H -2.1628009061 -0.9604749765 -1.1256238528
H 1.7230409296 -2.1433416557 1.4174441698
H 2.5090070801 1.2821279158 0.047869635
H 0.0520563173 2.062311825 -0.9323672915
