10
0
O 1.1385619024 2.1385130003 -0.2684575051
C -0.7534282751 -0.4936118053 -0.9506736468
N -0.3736042751 -0.9277955644 0.2645877567
C 0.4916804531 0.0713790843 0.8401753586
C 0.5206332405 1.1130054184 -0.2970916469
N -0.2900166794 0.6472373032 -1.3447740341
H -1.4196180833 -1.0999521553 -1.5553646068
H -0.6824016745 -1.7746745782 0.7006429398
H 0.081977325 0.5135825987 1.7495589187
H 1.4972490665 -0.3012083016 1.0403224659
