15
0
C 1.5209192778 -0.3450354242 -0.8419282797
C 0.6546843885 0.4109429805 0.1414334899
C -0.2042310221 1.589607592 -0.3810805173
N -1.382137256 1.0340543475 0.3244412048
C -0.6813164763 -0.1960451608 0.5295935483
C -1.0635399095 -1.3915422621 0.8779239066
N -1.4071136422 -2.5628086631 1.0441848501
H 0.9470015652 -0.6344561905 -1.72434292
H 2.3668623592 0.2662414082 -1.1644475908
H 1.9190224717 -1.2557609811 -0.390243639
H 1.2309772344 0.7020956999 1.0226215005
H -0.2959294297 1.5716359238 -1.4715500521
H 0.0714080629 2.5930545409 -0.0553421144
H -2.2432196008 0.9783133472 -0.2017358435
H -1.4521350231 -2.8353041582 2.0264494565
