11
0
O 2.3180595878 -0.6779246854 -0.1199273895
C 1.1010330206 -0.5983865527 -0.6204400433
C 0.2535608206 0.0958488683 0.3364351163
C -0.857944832 0.9304633098 -0.2854134531
C -1.200641271 -0.355024296 0.3442560212
H 2.8717332224 -1.1376490961 -0.7580518335
H 0.6735809582 0.4457084722 1.2762118877
H -1.0978376199 1.8480500939 0.2339959963
H -0.863656539 0.9897289066 -1.3648796681
H -1.6851016936 -0.3519355395 1.3109556966
H -1.4444666542 -1.1898354813 -0.2978733306
