16
0
C -0.9787792827 0.8098203753 -0.823975313
C 0.0137275753 -0.2433316774 -0.3448239858
C 0.3421671403 -0.0159124026 1.2449477729
C -0.36110856 -1.6325147063 -0.8113115301
C 1.4204065753 -0.011234369 -0.0921810374
C 1.4391097037 1.0733492561 0.8663246021
H -0.729260203 1.8176647726 -0.4932087777
H -1.9945658451 0.5802248729 -0.4931758433
H -0.9833238986 0.8115514629 -1.9159672166
H 0.5954550975 -0.8520456118 1.8822146544
H 0.9273860836 2.0294370853 0.7338451137
H -0.5261763543 0.5297151254 1.5979548307
H -1.3647147836 -1.9114565328 -0.4793876331
H -0.3544305717 -1.6689970667 -1.9035159376
H 0.3590206532 -2.3619399454 -0.4437607241
H 2.3293796701 1.1599973617 1.4816640251
