14
0
C -2.0004838124 -0.705977558 0.9639716286
C -0.7287465391 -0.1455414087 0.4067214327
C 0.0591889356 -0.8411913466 -0.4017587106
O 1.249646661 -0.4626387278 -0.9491242935
C 1.8529172349 0.7079796203 -0.4678436853
O 1.2161845078 1.8769500462 -0.8806640409
H -1.9789444632 -0.7288582494 2.0566860018
H -2.8606578875 -0.09743335 0.673515949
H -2.174917499 -1.7248474181 0.6132917427
H -0.4765372467 0.8764827496 0.6652699039
H -0.1911539635 -1.8475009532 -0.7205335929
H 1.2578864549 1.9268856678 -1.8383161362
H 1.8364422216 0.72009984 0.625616028
H 2.8821623957 0.6581750878 -0.8326452273
