10
0
N -0.9884388534 1.1954475027 -1.3089334214
C -0.3344353742 0.5050943209 -0.5052511563
O 0.9110302476 0.7932474862 -0.0068386816
C 1.3136883469 -0.1994817898 0.8525165267
O 2.3460837535 -0.2008701298 1.4212333728
C -0.7431853418 -0.8025739253 0.1106962359
O 0.3640108049 -1.1418617672 0.9364693253
H -0.4967590391 2.0412838858 -1.5840954421
H -0.894695565 -1.5743329164 -0.6436514694
H -1.6420959795 -0.7009556671 0.7183347099
