15
0
C -0.7215274813 1.2387287561 0.217198114
C -0.190183396 -0.1603974576 0.0459790167
C 1.2720921014 -0.2901590098 -0.2601308848
C 2.0927989038 0.809834819 -0.7096280182
N 2.2660088213 0.569534227 0.5018910065
C -0.8405147525 -1.2693345636 0.776819478
N -0.9976688756 -1.1470966168 -0.6720760983
H -0.1984813495 1.7588294207 1.021288617
H -0.5926746098 1.8208022844 -0.6998281893
H -1.7851997243 1.2205972942 0.4609854613
H 1.5854321695 -1.310986605 -0.4649148843
H 2.4531001225 1.5008951759 -1.4597197222
H -1.68268428 -1.0268444646 1.4161796233
H -0.2535839995 -2.1206854598 1.1028405202
H -1.9059066501 -0.7625067999 -0.9028140398
