14
0
C -1.1334137871 -1.102130893 -0.0153598941
C -0.6432667874 0.3023166441 0.1656876835
N -1.4106152173 1.2866987591 0.4711799129
O -2.731793053 0.8754132567 0.6061786359
C 0.7403247723 0.6382499309 0.0055880052
C 2.8585591855 -0.2229385134 -0.4950970392
O 1.5816738795 -0.2977316964 -0.3030759043
H -1.8959416661 -1.1300910686 -0.7944379015
H -0.3240052548 -1.7774719511 -0.2801052686
H -1.6048192771 -1.4503887753 0.9043969999
H -3.1852068362 1.6905489826 0.827396073
H 1.1084841361 1.6488281427 0.1333673083
H 3.3390091778 -1.15178722 -0.7465896672
H 3.3575257277 0.7320414016 -0.4026729437
