12
0
C -1.5423820767 0.5098293968 0.0848304526
C -0.7562369167 -0.4326207924 -0.7816002486
C -1.1482550355 -0.8430063924 -1.9465721013
C 0.5876853515 -0.9793030398 -0.317876091
C 1.5510342393 0.0863178488 -0.0547677504
C 2.3309022975 0.9667923111 0.1652936304
H -1.7888822375 0.0265102664 1.0324751122
H -0.9428805642 1.397405962 0.2943033404
H -2.4678177138 0.8184765811 -0.3989344692
H 0.9952878291 -1.6668325364 -1.0628112094
H 0.4259969158 -1.56035568 0.5944203777
H 3.0331459114 1.7433030746 0.3573959569
