13
0
C 0.3755449054 0.6195259296 1.1953864628
O -0.2267820554 -0.6619850391 1.3535909779
C 0.1100342415 -1.1331205198 -0.9436635526
C -0.940594346 -0.8596759089 0.1220306238
O -1.3841403536 0.4280430846 -0.207306871
C -0.0739667092 1.0007965456 -0.2400745331
C 0.6644874173 0.0515564876 -1.1631519679
H 1.4596945367 0.5516366126 1.305412164
H -0.0368515318 1.3090574692 1.9342185571
H 0.4059816987 -2.1047281293 -1.3098013779
H -1.7564880618 -1.5582236098 0.2780930896
H -0.1018630588 2.0589020154 -0.4809298005
H 1.5347413171 0.2963500624 -1.7545487722
