15
0
C 0.9287728487 0.7089363639 0.1341972655
C 1.55871497 -0.0140143195 -1.0355396468
C 1.2372830524 -0.7813706868 0.1381848863
O -1.4327146776 -0.6496842758 1.5644553817
C -1.6459774139 0.3273805043 0.5678480139
C -0.4986882827 0.5084705985 -0.4066910622
C 0.2215395165 -0.72122569 -0.9836620041
H -0.5489126372 -0.5301491208 1.9180499953
H 1.3827548777 1.4797140178 0.7439133599
H 2.3945377664 0.1029940685 -1.6991433297
H 1.7287283488 -1.5136683123 0.7518299928
H -1.8764613296 1.3015287012 1.0240325413
H -2.5390057714 0.0104714038 0.0228754794
H -0.7854822686 1.2482584106 -1.1622304163
H -0.1140689996 -1.5418076637 -1.6029804571
