14
0
O -0.6434601154 -1.5277960371 0.5723071363
C -0.4647314872 -1.3921465615 -0.6200776366
C 0.1123020708 -0.1940795474 -1.2297057706
C -0.1287560071 1.1495029909 -0.5453598066
C 1.1986990561 0.5320534139 -0.410349361
O 1.6574002718 0.0095524927 0.7743316422
H -1.5045077641 -0.0898054853 2.6413687974
H -0.7153804392 -2.2187052748 -1.3097648142
H 0.2159201442 -0.2102773699 -2.3064631122
H -1.6474703585 0.4358962965 3.1508232562
H -0.2548482872 2.0050638257 -1.1946913635
H -0.7781211432 1.1149438956 0.3211309692
H 2.0150444715 0.9335850211 -0.9967427972
H 0.9325495874 -0.4748056602 1.1951508607
