14
0
O -1.1190898172 1.4398072735 -2.2096406923
C -0.6319122936 -0.3625571629 2.0089987458
C 0.6414761819 -0.6842730151 1.7708775581
N 0.5669520832 -0.4389487992 0.3825694798
C -0.8545733592 -0.060764721 0.5379631526
C 1.4029879764 -0.5201336841 -0.6565749583
O 1.1200020264 -0.246857263 -1.808768098
H -0.3621488729 0.8313021305 -2.2067965362
H -1.2585994482 -0.3250042377 2.882537264
H 1.5086653686 -1.0171281303 2.3235018752
H -0.9486103745 2.0566047193 -2.9212065794
H -1.0514720396 0.9727704416 0.256061608
H -1.5238642249 -0.7274074696 -0.0056115072
H 2.4074877937 -0.8715960818 -0.366947312
