16
0
C 2.2983350059 0.0435784867 0.5787668044
O 1.2351414343 -0.7229763744 0.527291692
C 0.0693984243 -0.3782230933 0.1287311987
C -0.5334474945 0.9778464869 0.01102365
C -1.9090515331 0.2520333605 -0.0071687654
C -1.2214554586 -1.1184939309 0.2754849266
H 2.1943315307 1.1028461855 0.3968252219
H 1.9284154338 -0.1260314268 -1.827310772
H 3.1797318537 -0.4367010411 0.9632797643
H 1.2089594304 -0.3073841821 -1.9796692322
H -0.3567382458 1.5960798663 0.9043963197
H -0.2807061775 1.5797881562 -0.865324782
H -2.4013108463 0.2911989276 -0.9771654036
H -2.6105241773 0.5774308437 0.7584320184
H -1.4080492348 -1.510483972 1.28046545
H -1.4278749452 -1.9097072928 -0.447880091
