14
0
O -3.0741627849 -0.3697897717 0.6584732987
C -1.9022439267 -0.3115301066 0.4170411504
C -1.2234813788 0.8944998008 -0.207918204
N 0.2077677451 0.9300777722 -0.0450218633
C 0.9932686414 0.0386144788 -0.7909358452
C 1.8968264045 -0.8063127255 -0.3017690123
O 2.1661531573 -1.0223563988 1.017009524
H 1.4321606837 -0.709599863 1.5528316054
H -1.2203068976 -1.1596214966 0.6520847864
H -1.6807387797 1.7968404849 0.2033324904
H -1.4615352387 0.8862552688 -1.2773957162
H 0.5278016844 1.1366394986 0.8861165397
H 0.8653662155 0.0939029825 -1.8661188199
H 2.5373424744 -1.3861819242 -0.9510549341
