12
0
O 1.0688531561 2.2611962071 0.7407583817
C 0.5412463031 1.2043410976 0.5714977494
N 1.2713792304 0.0324627838 0.1519220732
C 0.4917602647 -1.0488406794 0.0971957612
C -0.852199615 -0.7484561523 0.4294964658
O -0.9250675486 -0.1621228636 1.7584698378
C -0.8816490755 0.7344338387 0.6973870617
H 2.2809260856 -0.010047492 0.2084273673
H 0.8800835746 -1.9782887491 -0.3005743788
H -0.9379899482 0.3666419235 -2.6951022275
H -1.6957152321 -1.3413393773 0.1127697542
H -1.2244101951 0.6584254629 -2.069775846
