18
0
C 2.8220683646 0.422786127 -0.0673060562
O 1.6329887396 0.7080317249 -0.7602615972
C 0.6873261662 -0.2858615878 -0.6108829519
C -0.1108879444 -0.5405472005 0.7077366857
N -1.2340746414 -0.4467428044 -0.08895187
C -2.6161683022 -0.7488076685 0.1931061322
C -0.6586224623 -0.0592020962 -1.2168801187
H 3.5029421772 1.255851608 -0.233806184
H 3.2870126854 -0.4992957086 -0.4419656848
H 2.6328988977 0.3161845688 1.0067461844
H 1.0702465615 -1.2713878593 -0.9301012819
H -0.0144484687 -1.425009668 1.340037834
H -0.4656819152 2.025463569 0.7354561962
H -2.8354996888 -0.475921571 1.2232110952
H -2.799421613 -1.8138146002 0.0473211502
H -3.2505664629 -0.1784511624 -0.4839009316
H -0.6712693146 2.5538179312 0.2441144576
H -1.0822367788 0.5360763979 -2.0116500594
