16
0
C -0.9024791098 1.4739574731 0.6678929402
C -0.9831449071 -0.0066705384 0.9268972484
C 1.1920729716 -0.4216955201 -2.0463977512
C 1.2897977869 -0.6285701263 -0.7665194602
C 1.3764457336 -0.8284586902 0.5156146807
C 0.2489039323 -0.6565636477 1.5065596308
N -1.9980414526 -0.732785847 0.714261099
H -0.0190539567 1.7170387694 0.0751306459
H -0.8139987817 2.0101154362 1.6166031513
H -1.7886694517 1.8349115082 0.1461858556
H 1.4239261615 0.5455611062 -2.4780349314
H 0.8790423178 -1.2127841742 -2.7178488404
H 2.3249006894 -1.1758820931 0.9159888277
H -0.0377963177 -1.6351141299 1.8962928551
H 0.6155080194 -0.0614119734 2.3498517292
H -2.7594226351 -0.1837675527 0.3174423192
