17
0
C -1.4520255491 0.672947069 0.918849624
C -0.0518550513 0.9375530869 0.4107399989
C 1.0872218195 0.0315986704 0.8786469056
O 1.3676394772 -0.4580285664 1.9291301446
C 1.6590799396 -0.0764383459 -0.5325432922
C 0.3534874012 0.5588411692 -1.0495968816
O -0.4435125227 -0.4465533538 -1.6315738576
H -2.1759171759 1.3584714369 0.4720531594
H -1.4885944699 0.8055056385 2.0005247831
H -1.7585125594 -0.3505051162 0.6995279922
H 0.2476374127 1.9729922752 0.6080378894
H -0.5100637615 -2.6479714509 -0.1575724547
H -0.4851400287 -3.0369752475 0.4786692314
H 2.5432493776 0.5482106039 -0.6681740217
H 1.8627466072 -1.0849798446 -0.8908690207
H 0.4732125894 1.4048429428 -1.7317873765
H -1.3115055059 -0.0864199676 -1.8252768235
