14
0
C 2.3919901691 -0.1357307076 0.1556289419
N 1.1772745292 0.4925344773 -0.320959399
C -0.0398233441 0.0542822155 -0.0148169876
O -0.2442328933 -0.9730108532 0.7354905661
C -1.6058717582 -1.180068649 -0.1525258543
C -2.3727475583 -0.0565185795 0.4058611153
C -1.2968374323 0.3826312122 -0.5710396141
H 2.8593890443 0.448015475 0.9507370327
H 2.1370779296 -1.1187934037 0.5452364182
H 3.0979966145 -0.2558439545 -0.6658619508
H 1.2359464985 1.3037834471 -0.9095704908
H -2.2839506767 0.2564113899 1.4419576944
H -3.3684215152 0.0217637634 -0.018148797
H -1.4633496072 0.8834601669 -1.511267675
