17
0
C 2.3104053324 -0.3486502884 -0.2867549103
N 1.0838510515 0.4048986321 -0.4402166679
C -0.1320005751 -0.0557336964 -0.0114553735
O -0.0689923024 -1.3611558761 0.3040738237
N -1.2171276815 0.5953303752 0.0744944531
C -1.290184355 -1.9667993281 0.6993256457
C -1.1975072825 1.9865097116 -0.3028283437
H 2.572575875 -0.5252924006 0.7608320685
H 2.226395173 -1.313839837 -0.783443281
H 3.1175100665 0.208361078 -0.7612508969
H 1.1670926152 1.4044146431 -0.4688095197
H -1.6815069996 -1.4969597076 1.6021815702
H -1.0511128291 -3.01185718 0.8857283468
H -2.0384821607 -1.8775179691 -0.0886447719
H -0.8891212557 2.1357905902 -1.3470259832
H -2.198701757 2.4031844788 -0.196721606
H -0.5315829147 2.5903297744 0.3320734461
