13
0
N 2.1065498837 -0.5120080315 1.6556850059
C 1.5826802781 -0.2317287186 0.6747144973
C 0.9608380066 0.2216404181 -0.5562471019
C -0.2221502835 -0.5245642 -1.212959936
C -0.3957456077 -1.8099049903 -0.634400133
C -1.0305829785 0.9500524075 0.7083281807
N -0.3268781486 0.8069985098 -0.5560945716
H 1.6783784919 0.6067746128 -1.2725558367
H -0.2215438544 -0.428427874 -2.2935611438
H -0.5731550185 -1.7090495975 0.4491288113
H -0.8550915113 0.1425805337 1.4248621194
H -2.0963801649 1.0178204205 0.4958032261
H -0.7046570926 1.8843645093 1.164679882
