16
0
C -1.9625519954 -0.6305408134 0.3653347296
C -1.1502980485 0.5011545108 0.9822283189
C 0.3437758529 0.1800222063 1.0692622227
O 1.8740458819 0.0470884097 -3.3053968871
C 0.9602577194 0.0343454116 -0.2882444213
O 1.6492812256 -0.8939295764 -0.6325029062
H -3.0239967851 -0.3807824954 0.3346376169
H -1.6448144288 -0.842906003 -0.658515242
H -1.8517557351 -1.5525767283 0.9403654227
H -1.2878392646 1.4180974179 0.4003750283
H -1.5182570217 0.7204570365 1.9868831408
H 0.5323152809 -0.7294347027 1.6429352985
H 2.731959833 0.0179045187 -3.7285664223
H 0.866939837 1.0068580729 1.5639754189
H 0.7483691102 0.8532853259 -1.0058099445
H 1.9624755383 -0.4809115912 -2.4987803739
