17
0
C -1.6555983165 -0.3410271228 -0.126800561
C -0.4392024863 -0.0962541886 0.757832939
O -0.7846898465 -0.584858823 2.0476131219
C -0.0390093702 1.3681832288 0.7637092389
C 1.1813684908 1.5089828848 0.2498410027
C 1.7124227252 0.1756414342 -0.1124617746
C 0.8052484003 -0.7520586482 0.1873443474
H -1.875303555 -1.4088657458 -0.165102061
H -1.4765344791 0.0215779209 -1.1394122441
H -2.5225122929 0.1738058582 0.2891429136
H -0.0309419696 -0.4482979403 2.6268358707
H 0.3391100949 -1.1039580663 -2.7875422419
H -0.6949132756 2.1468721862 1.1286160927
H 1.7166414237 2.438528908 0.1098902982
H 2.6854003501 0.0043562277 -0.5536231333
H 0.8869093441 -1.8223178539 0.0518233709
H 0.1672307629 -1.2926142596 -3.48834818
