10
0
N 1.8277476839 0.1815331488 0.1155734807
C 0.5279824687 -0.0859819603 -0.0258114615
O 0.2544506235 -1.249282622 -0.5541603163
N -0.36124167 0.810347703 0.3623944976
C -1.6596255394 0.4798270288 0.1909243905
O -2.1059320476 -0.5691535071 -0.2876260304
H 2.5149949479 -0.4901870008 -0.1694337231
H 2.0955745571 1.0592824541 0.5184165216
H -0.7595486717 -1.2778961509 -0.5835653377
H -2.3625613524 1.2532609065 0.5248579787
