15
0
N 2.0967157235 0.3895676388 -1.0788662843
C 1.55966769 -0.46038648 -0.1420977642
O 2.5034684206 -1.2816948142 0.3798920686
C 0.2778916757 -0.4508005297 0.2458180031
N -0.6339477001 0.4210749498 -0.4058881005
C -1.612650194 1.1117267362 0.4141019997
C -2.0206107293 0.0054614953 -0.4823731881
H 2.825872472 -0.0199439704 -1.6395305484
H 1.385139467 0.8745414741 -1.6033441334
H 2.0803293225 -1.8917189965 0.9877668991
H -0.0633914181 -1.0792793637 1.0679959272
H -1.5973658923 0.9108732228 1.4810621466
H -1.8175908056 2.1411948077 0.1435273502
H -2.2834232797 -0.9418605332 -0.0207301433
H -2.5287537525 0.2151003629 -1.4166722325
