16
0
C 1.3837550067 0.6278236584 0.1043068056
C 0.1000806335 -0.1444186363 0.4378145368
C 0.4039512727 -1.4791079192 1.1056338081
C -1.7422396224 1.91777699 -0.8919557893
N -1.4854236004 0.7143975026 -1.347361784
C -0.6772482963 -0.3655780271 -0.8382352145
O -0.6437890869 -1.3717399684 -1.488431345
H 2.0086019499 0.0462427436 -0.5763006794
H 1.9533039557 0.8074896349 1.016776519
H 1.1771072488 1.592337814 -0.3612520059
H 0.951528007 -1.3119371712 2.0343019026
H 1.0100592722 -2.1092192351 0.4545884004
H -0.5101558371 -2.0253473238 1.3402733731
H -0.5075888028 0.4646755168 1.1108852913
H -1.2058360715 2.0241306438 0.0674349785
H -1.9038500292 0.434981777 -2.2300197972
