13
0
O -1.8844710976 1.7553166804 -0.2622136642
C -1.1428137837 0.8358186215 -0.3856548981
C -0.8760068759 -0.4863494285 -0.9644264303
C 0.1977571499 0.2787741214 -0.1505892957
O 1.2827802448 0.861934444 -0.8253141176
C 2.3764319172 0.0883420355 -0.9263657029
O 2.4858203741 -1.0148909393 -0.4882275006
H -2.2899332107 -0.1588086931 2.2081176594
H -1.9871247058 -0.7776303382 2.4926468179
H -1.2766714773 -1.3938657198 -0.5286108562
H -0.7507349155 -0.506801191 -2.0426834535
H 0.4372898474 -0.131592876 0.8242782569
H 3.1542795331 0.6381262829 -1.4711818152
