18
0
C -2.187441021 -0.2136649956 -1.085380024
C -1.2164888317 -1.1334956423 -0.4176847719
C 0.0737676347 -0.8628104318 -0.277499827
C 0.3971563316 2.5238788767 0.9159059652
N 0.9929849086 -1.7095776157 0.3486627792
C 2.2972393632 -1.3797716502 0.553567196
O 2.8106507934 -0.3386493712 0.224103127
H -1.6954610041 0.6967844788 -1.4298996487
H -2.6582972205 -0.6907278678 -1.9488053348
H -2.9899702326 0.0745120785 -0.4015336311
H -0.3803947247 1.8814846935 1.3281435675
H -1.6102803096 -2.0687797803 -0.024645698
H 0.520873752 0.053046381 -0.6421796919
H 0.1224137254 2.8199639201 -0.0964067865
H 0.4994905591 3.4145768832 1.5341908072
H 1.3416174207 1.9815808566 0.8904774453
H 0.676622727 -2.6029073572 0.685031195
H 2.8535911282 -2.1841074563 1.0651723315
