16
0
C -1.9938276579 -0.9037408589 -0.2253516675
C -0.5345613384 -0.6144904201 -0.4701355825
O -0.6528192378 0.9123753204 -1.2066778662
C 0.1082361222 -0.2336723688 0.8338958019
N 1.5718287078 -0.1002796489 0.8071100153
C 2.205344584 0.8545741648 0.1427996965
O 1.6592721964 1.7412100883 -0.5164801639
H -2.0546244811 -1.8890348485 0.246203289
H -2.5503173537 -0.9799328004 -1.1613797247
H -2.5192640815 -0.1821718182 0.4237792997
H -0.5912862966 0.6667944217 -2.1342130334
H 0.2272065815 1.3604062304 -0.9754505692
H -0.2930836368 0.6914210663 1.2816447117
H -0.111672109 -1.0399882216 1.5352331087
H 2.1316246403 -0.8248758626 1.2200062255
H 3.3001183606 0.8198895561 0.2265934592
