16
0
O -1.3844339422 0.1116148068 1.3072392468
C -1.2078628927 -0.405883303 0.0074499428
C -1.3268521186 0.6790196053 -1.0516716178
C 1.2597021158 -0.2944996388 0.1659029051
C 2.3028436823 0.4041486422 -0.017724023
N 1.5127485284 0.763573242 1.2107757511
C 0.122082043 -1.183247629 -0.0935669412
H -0.6525528039 0.7195346531 1.4798325286
H -2.0145624827 -1.1309753934 -0.1304157317
H -2.2930146075 1.1755977461 -0.9619721664
H -1.2422021162 0.2615324781 -2.0576573913
H -0.5430905824 1.4298713151 -0.9244539813
H 3.1527908739 0.7846438654 -0.5502300053
H 1.9478944071 0.3163642956 2.0193175163
H 0.2275782684 -1.646239002 -1.0767605172
H 0.1089636274 -1.9767346837 0.6586574845
