14
0
C -1.4815739915 0.985602945 -0.2376337874
C -1.7211761538 -0.5097474334 -0.324638525
C 1.6963478809 -0.2196687696 0.8021741703
N 2.6073447879 -0.7920508857 -0.1299109803
C 0.7225573286 0.6010006531 0.4954457331
N -0.1546439177 1.4023682031 0.2161407237
H -1.633037575 1.4617187355 -1.2096713841
H -2.1973242209 1.4542988534 0.4420585982
H -2.7374576501 -0.7045247006 -0.6713182587
H -1.59631473 -0.9887062497 0.6482493849
H -1.0268998637 -0.985344777 -1.0202401252
H 1.7788454198 -0.5589534968 1.8272803769
H 2.4114377038 -0.4967172189 -1.0752911964
H 3.5632239818 -0.5454528583 0.0897172699
