16
0
C 1.6102660565 0.2211420176 -0.4928248022
C 2.1232772039 0.3744850297 0.9543626139
C 0.1917265938 0.6557438892 -0.4549981068
C -0.7265122245 -0.4200628374 -0.3019239534
C -1.9927722874 -0.1002025095 0.5222018679
C -2.1197064237 -0.1757760463 -0.9263790057
H 1.7653542873 -0.8195951632 -0.8159510638
H 2.2002693214 0.8820746026 -1.1317711992
H 1.5821536882 -0.2837244226 1.6364790262
H 3.1812355827 0.114683174 0.999101427
H 1.999589494 1.4001249897 1.3026584119
H -0.4130604081 -1.4667950486 -0.2781827865
H -2.3459870983 -0.9269705389 1.1235504233
H -2.0024099343 0.8699599146 0.9962466247
H -2.563351008 -1.0563615066 -1.3706466098
H -2.2156228435 0.7414994557 -1.4880088675
