10
0
O 2.6090523456 -0.8572011002 0.5043324391
C 0.5569777681 -0.1251886026 -0.4748236487
C 1.4876614851 -1.017477076 -0.2668906476
N -2.2797571853 -0.0256821034 0.0872048438
C -1.4541712082 0.9150212861 -0.0388636451
N -0.2499400924 0.7564463949 -0.752645752
H 2.6942676378 0.0606653377 0.7706408035
H 1.3914888009 -2.001245043 -0.7032119835
H -3.1130001961 0.2942537625 0.5729102814
H -1.5988023555 1.942320144 0.3032333092
