12
0
C -1.7414668427 -0.3848517159 -0.3301009043
C -0.4600586506 0.0511853915 0.2494518402
O 0.761778302 -0.9849622142 0.1167957307
C 1.6595748373 0.2100366991 0.1496398718
C 0.4214612308 1.1222478216 0.1137567052
O 0.3461706784 2.3329650739 0.008999723
H -2.3499604028 0.5223887829 -0.3810554514
H -1.6515700996 -0.7769625427 -1.3494055678
H -2.2876172824 -1.1058258489 0.2830669653
H 0.8295874499 -1.479046877 0.9414025987
H 2.2609758656 0.1892672923 -0.7557325237
H 2.2726859142 0.2069771374 1.0493480122
