9
0
C 2.039882177 -0.7299278526 0.3744012735
C 1.0462328941 -0.0839915101 0.2125082415
C -0.1687295608 0.7034605078 0.0169782104
C -2.3498404012 -0.270520476 -0.8572698711
C -1.4134923795 -0.1510845178 0.0236073455
H 2.9255835497 -1.3040941953 0.5122536968
H -0.2491478623 1.4490873313 0.8113954254
H -0.1059360991 1.2478350819 -0.9261044453
H -1.629432318 -0.8034463694 0.8774371232
