14
0
O 0.0451613496 -0.2563016472 -1.330326819
C 0.7694975816 1.0234364527 -0.6254719964
C -1.2028105113 -0.4240162194 -0.5993288245
C -0.9799206472 -0.1150321103 0.8856576609
O 0.3343726628 -0.4474494509 1.2547007328
C 1.3428661915 0.3264846517 0.5726713453
H 0.5748703013 -1.0608316353 -1.2082117801
H 1.5599201215 1.2432817717 -1.3507751717
H -1.5167453426 -1.4557967511 -0.7710675458
H -1.9037350502 0.2670378903 -1.0615919057
H -1.6350984764 -0.7469156152 1.4891587323
H -1.2078815076 0.9324159138 1.0869601813
H 1.7607508639 1.0911573628 1.2397814386
H 2.1412324632 -0.4158656137 0.383438952
