15
0
C -2.2276462883 0.1243638699 0.0451428771
C -0.7216035525 0.2606566248 -0.0655846175
O -0.1971047395 1.0103491866 1.0333562806
C -0.0594289691 -1.1023225611 -0.2071683264
C 2.1606041975 0.0959338282 -0.2734820364
N 1.2388885556 -1.0461927084 -0.2799376529
H -2.7043059952 1.103553705 0.1171473697
H -2.6204741126 -0.404093946 -0.8241498347
H -2.488139956 -0.4693776193 0.9259714153
H -0.4865502536 0.8533730027 -0.9614274708
H -0.5127992284 0.5964274771 1.840188981
H 1.696538496 0.9638860677 -0.7347541122
H 2.4372655775 0.3625307291 0.7453589699
H 3.0532403271 -0.1755129099 -0.8369263241
H 1.7056019415 -1.9380447466 -0.3561415185
