19
0
C -1.5790429165 -0.6110293803 -0.7086042099
C -1.030600117 0.3465596142 0.3437588997
C -2.0921924439 0.7099139224 1.3774675573
C 0.1828023347 -0.2255981864 1.0542114622
O 1.2390765584 -0.5122224991 0.1157319774
C 2.1730157945 0.3810679952 0.0059120286
C 3.1441795357 -0.085462423 -1.0286938264
H -2.4264194707 -0.1638418368 -1.2318540847
H -0.8214411801 -0.8684188376 -1.4494322663
H -1.9264742395 -1.5393177107 -0.2455796704
H -0.6968251474 1.2653202404 -0.1521199351
H -2.4324408855 -0.1778936115 1.9185277247
H -2.9643174756 1.1541797702 0.8949956943
H -1.714065759 1.4263822132 2.1096353185
H -0.0535183349 -1.1802025798 1.5313103765
H 0.5789827931 0.4739873783 1.7911153563
H 2.8965408985 -1.0397232753 -1.5044360861
H 4.1262345096 -0.1424036814 -0.5500022384
H 3.2361695458 0.7049268881 -1.778793078
