10
0
O -0.5000402858 1.0201332261 -0.7681133313
C -0.5200577316 -0.3530655985 -0.5425392671
C 0.8599643791 -0.911920748 -0.3447050449
O 1.8395823468 -0.2179008165 -0.4036563782
H -0.4584878645 1.4761669025 1.8151312533
H -1.1135736519 -0.5992359123 0.3492944862
H -0.9813971432 -0.8906764219 -1.3837814515
H -0.3282175489 1.3224398122 2.5337347144
H 0.9321402524 -1.997360052 -0.1448296647
H 0.4305502476 1.2818076082 -0.7856843163
