13
0
C 1.6864331687 0.5137405962 -0.5589061464
N 0.2616779424 0.7762644443 -0.6829696704
C -0.4717266692 1.1034109064 0.5559003614
C -0.6187648384 -0.1598633922 -0.142736693
C -1.0654916991 -1.3895323681 -0.2687329821
O -1.993610486 -1.9821277707 0.5390615703
H 2.2297217327 1.4590698617 -0.5825731214
H 2.0101703952 -0.0901679589 -1.4069539238
H 1.9332932958 -0.0249717528 0.3663942349
H 0.0955293414 1.1047225271 1.4848986092
H -1.2121982328 1.8900848531 0.460801239
H -2.2647529223 -1.3546952467 1.2135629161
H -0.7300930283 -2.0477006993 -1.0592023937
