14
0
C 1.0678660268 0.7257093127 0.3413008603
C 1.0968823372 -0.7422976927 0.0536020345
O -0.0315414118 -1.3395128133 0.6595993842
C -1.1289448224 -0.7391473842 0.7408918224
O -1.3526687681 0.481040568 0.3261348316
C -0.2474865223 1.2924030021 -0.1511220277
H 1.1550347906 0.9650692291 1.4174967598
H 1.8909472069 1.2270287766 -0.1692501799
H -0.4766216691 -1.3881309163 -1.8688865265
H 1.9585959582 -1.2964107736 0.4086210153
H -1.9854658802 -1.2763528328 1.1231457929
H -1.1999674995 -1.523708145 -2.0312801957
H -0.4587421506 2.2935696397 0.2277072589
H -0.3031255958 1.2916330297 -1.2378278305
