9
0
O 2.4378923228 0.4381127964 0.2320262907
C 0.1681372556 0.0814623785 -0.4186161036
C 1.2659322604 0.7893961083 -0.380029241
O -2.7787229067 0.2331606329 0.2865254326
C -1.9476771352 -0.6224697486 0.2895411551
N -0.8193820973 -0.6296166181 -0.5525671753
H 2.4112298025 -0.4847196945 0.4938932964
H 1.2821181897 1.768626033 -0.83673499
H -2.0200906918 -1.5465588875 0.8862613351
