11
0
C -2.4190943756 -0.3555202941 -0.7681896822
C -1.0655319809 -0.2281174453 -0.2437396663
C 0.052437243 -0.1291577078 0.1822090373
C 1.3678710257 -0.016518103 0.7155403348
C 2.42124606 0.2088797271 -0.0385879965
N 3.4124879071 0.3036526126 -0.7317513096
H -2.9030052477 0.6191090195 -0.8531210767
H -3.0283799811 -0.9801764562 -0.1129704605
H -2.4071735893 -0.8176115229 -1.7566270177
H 3.7290127807 1.2441865395 -0.9502591141
H 1.5283601581 -0.1062093694 1.7835729514
