12
0
N 1.7135851721 -0.8485142282 0.311611954
C 0.4493685693 -0.7044407857 -0.1881305026
C -0.9207371714 1.8057762963 -0.7285963074
N -1.3053204731 1.0314934339 0.262880965
C -0.4861106164 -0.0046052671 0.776495826
O -0.5749986671 -0.3280569327 1.9275272333
N -0.0523559315 -1.1210333072 -1.2722642886
H 2.3210887577 -1.5138249411 -0.1336151371
H 1.8262226443 -0.7531651164 1.3065436097
H -1.7025077691 2.5785604288 -0.8301725679
H -2.1263446627 1.1810231804 0.8478746759
H 0.6090381478 -1.6674437611 -1.8191254603
