15
0
C -1.8071708973 1.3250003546 0.4649506947
C -1.3875790514 0.1385702742 0.0761700713
C 2.8988952561 -0.5867390535 -0.0597071864
C 2.2435736489 0.5388212824 -0.175009521
N 1.7157219263 1.625094812 -0.3049940156
C -0.9598871733 -1.2229564008 0.3197361727
N -1.1056794056 -0.6354860942 -1.0392329254
H -2.1096542459 2.0728081259 -0.2574968228
H -1.8663967922 1.5662921964 1.5172668753
H 0.7115923413 1.6497705687 -0.1306286561
H 2.9974469021 -1.2412728138 -0.9133037413
H 3.3442442907 -0.8611142664 0.885345137
H -1.7089075233 -1.9298814672 0.6625142256
H 0.0643700399 -1.4460872465 0.5955121329
H -1.9154973161 -0.9495012718 -1.5590764406
