14
0
O 1.6152591604 1.8978510449 -0.1250564235
N 1.4672047892 0.6506374524 -0.7906559653
C 0.3086351293 0.0162726507 -0.3122745388
C -0.3200391013 -1.2937598053 -0.70713841
C -1.3310019923 -1.0255373393 0.4573281771
C -0.5581674192 0.2397656744 0.6752308491
O -0.7541368915 1.1897608737 1.6097782205
H 2.4857537449 1.8321635322 0.2742165154
H 0.303391831 -2.1798017812 -0.5674426988
H -0.7788838691 -1.3294553764 -1.6986234799
H -1.2790502499 -1.7567307863 1.266750646
H -2.3706746086 -0.9008057889 0.1475308654
H 1.3740793609 0.879512072 -1.7752696799
H -0.1102418839 1.8865835771 1.4432489227
