13
0
C -2.2083307759 0.4390732683 0.0333552617
O -1.3002287451 -0.6401949634 0.2449966444
C -0.0197635614 -0.3793665054 0.0803599834
N 0.4222013085 0.7928046911 -0.2596471393
N 1.8407749433 0.5487000668 -0.3067347805
C 2.232426862 -0.8808847972 0.0372557706
C 1.0026641539 -1.3907681853 0.2661027341
H -3.2010947368 0.0286443083 0.1995502242
H -2.006565114 1.2477039981 0.7367985117
H -2.1181252308 0.8193238751 -0.9848849261
H 2.3106006226 1.1806992692 0.3386144093
H 2.185684341 0.7646898591 -1.2401775184
H 0.7772869325 -2.4081478847 0.5479228248
