8
0
C -0.3585788153 -0.7257497176 0.0896847219
N 0.5005071269 -1.170288542 0.9626684115
N 1.2422839571 -1.5478071304 1.7161318197
N 0.8577873553 1.6085962415 -2.0421054305
N 0.2660533355 1.1931046344 -1.1832655002
C -0.4193683088 0.7055970464 -0.1881681943
H -1.0113218666 -1.4798109233 -0.3270575339
H -1.034117784 1.425338391 0.3337217057
