15
0
C -1.7256539917 0.0870628679 0.4991193028
C -1.0595050352 0.4540115817 -0.8189712527
N 0.8058198108 -1.1672489358 -0.6164476075
C 1.6168525004 -1.1600890647 0.3651522812
C 1.8326040412 0.2201803719 0.8412592797
N 1.1506665507 1.038912192 0.1440827955
C 0.4524420094 0.2239350552 -0.8349015177
H -2.7980180809 0.2807254216 0.448667403
H -1.5880124564 -0.9706383718 0.7294121214
H -1.3199050128 0.673593988 1.3249064095
H -1.2305091515 1.5074481102 -1.0493918674
H -1.4867924073 -0.1327414555 -1.6346513076
H 2.0645679598 -2.0635211424 0.7650824216
H 2.4732470798 0.5320712329 1.6589955512
H 0.8351911836 0.5053911489 -1.823409013
