12
0
O -1.9123679294 1.1060370815 -0.7119898969
C -1.5010116312 -0.0051817772 0.0576131644
C -0.0182187261 -0.2019333049 0.0072830332
N 0.8420575707 0.7860245044 -0.2699292905
N 2.108397214 0.3377132085 -0.2153854643
C 1.9383431198 -0.9237606024 0.1049275701
N 0.6447711939 -1.3098658967 0.2495036923
H -1.9308103777 0.853076967 -1.6369865609
H -1.9888423229 -0.9343955689 -0.2480218237
H -1.804260061 0.2015816811 1.0858980155
H 0.632736808 1.7408376361 -0.502921037
H 2.7720391419 -1.5961169284 0.2337085979
