12
0
C -2.4256476365 0.8300318323 0.0904197372
C -1.128991582 0.1719622956 -0.0118941715
C -0.0629213139 -0.3674076202 -0.0989015385
C 1.2424307757 -1.0158936154 -0.2061692249
C 3.1275681377 -0.1402284099 -1.671748325
C 2.3215934739 -0.0629023133 -0.6663887463
H -2.8672373664 0.6679994231 1.0747159945
H -2.322682117 1.9053257628 -0.0628627861
H -3.1162060333 0.4452458409 -0.6612476181
H 1.1843826729 -1.8578549535 -0.8974663206
H 1.5316035629 -1.4232873168 0.7656061925
H 2.5066424259 0.8627980741 -0.1101861931
