14
0
C -1.5895397246 -1.0239113964 -0.1753600961
C -0.6372060537 0.0089564142 -0.7780912783
C 0.480729821 0.3941187167 0.1334933381
O 0.1494902167 0.9920778018 1.3388821669
C 1.7687564018 0.1531877424 -0.0820330842
O 2.7630166641 0.504209084 0.7731295215
H -2.4045215806 -1.2505044756 -0.8647325671
H -2.0279326274 -0.6637556744 0.7569180017
H -1.0584326202 -1.9510057227 0.0461112508
H -1.203033394 0.9079629795 -1.057956314
H -0.2055003977 -0.3738004197 -1.705190485
H -0.5990197246 1.5783014629 1.2117662248
H 2.3539335891 0.9503481631 1.5227219771
H 2.1190544302 -0.3618676757 -0.9650916564
