13
0
C -1.9365775733 -0.3450477915 -0.2595738274
C -0.6617971072 0.4163020145 -0.4482944666
C -0.4362135198 1.6590817597 -0.7345445844
C 0.6719662344 -0.2784095019 -0.3592469245
C 1.8835318146 0.4044334558 0.1633285209
N 1.2154737159 -0.6263135025 0.9431746132
H -2.8040886599 0.3073627991 -0.3419339434
H -1.9491806386 -0.8232319318 0.72166879
H -2.0192352751 -1.1299017534 -1.0140944129
H 0.8089130295 -1.0439487885 -1.1170203595
H 1.7957486346 1.4355224264 0.4815948236
H 2.849555008 0.1229749732 -0.2363487249
H 0.6624503368 -0.2117021592 1.6849744956
