11
0
C -0.9225312259 0.0122482865 -0.0464641016
C -0.5464328572 -0.3704373575 -1.469110697
O -1.1787424032 -1.1520844522 -2.1171396161
C 0.1709823378 -0.2976795163 0.9454785428
O 0.1025698721 -1.1614482134 1.7768263815
C 1.4471155494 0.5499407167 0.8842075058
O 1.6056946241 1.4202849777 0.0773642897
H -1.0852350788 1.0953541936 -0.0450141174
H -1.8290569502 -0.5149020937 0.2423615598
H 0.3476124903 0.1332916953 -1.8812709495
H 2.1994406416 0.2808867635 1.648333202
