10
0
N -1.0854383553 1.2775914776 0.3968162619
C -0.1519098656 0.2970295658 0.1637858462
O -0.2048069693 -0.0065520991 -1.2075572059
C 0.7158627408 -0.2606310244 0.9930308725
C 0.5481563565 -0.951187884 -1.6496657471
N 1.1998107787 -1.7856696666 -2.0988345879
H -1.9439521594 1.1792633218 -0.1211833476
H -1.2271496471 1.4938378612 1.3684113595
H 0.6857554004 -0.0150987196 2.0439195715
H 1.4702157203 -0.9480538328 0.6406999766
