13
0
C -1.4001667213 -0.658298391 -0.2003240187
C -0.6595206595 0.4749202415 0.4774201296
O 1.8924512945 -1.9126500267 1.0184431183
C 2.2834646378 -1.3194168784 0.1066944233
O 2.682883321 -0.7324823102 -0.8065039779
C 0.1645381272 1.4638205494 -0.2990638538
C -0.9527547122 1.9094723922 0.1574543662
H -1.6509820851 -0.3978238232 -1.2307068396
H -2.3292878908 -0.8912799463 0.32655713
H -0.8009582431 -1.5728303473 -0.2162385499
H -0.3459360173 0.2381486615 1.4961451506
H 1.0672825622 1.6240907636 -0.862536865
H -1.6587886134 2.7158051151 0.2534557868
