13
0
N -1.249294784 0.6668679065 -0.9774923851
C -1.8200412918 0.1675245955 0.0297531814
O -1.1934460656 -0.5598017319 0.9571182955
C 0.1167120744 -0.9324554276 0.7157346599
C 0.9805129045 -1.022167538 1.7048530519
C 1.8151865223 1.1492624359 -1.6570644532
N 2.9313374389 1.2644797207 -1.88480038
H -1.9154117114 1.1695319245 -1.5522160093
H -2.8749590139 0.2631311071 0.285258821
H 0.3321607004 -1.1762915939 -0.317229293
H 0.7607211912 1.0248795098 -1.437327886
H 0.7100522461 -0.7562990296 2.7182315358
H 1.9843667887 -1.3677038791 1.5047868609
