18
0
C -2.2481283072 -0.5301814225 -0.5457901035
C -1.8677382902 0.6011348963 -1.4469148079
C -0.6510946694 0.8099794407 -1.9304396975
C 1.477763529 -0.504043389 1.4267573683
C 2.9143049561 -0.5592700473 0.9844667266
C 0.7426176286 0.5738684587 1.3601244039
N 0.0908775002 1.6056031323 1.3769755412
H -2.6513351692 -0.157660451 0.399685394
H -3.0286897345 -1.1430980817 -1.0034304576
H -1.3911800359 -1.1682611249 -0.3254881958
H -2.6640313645 1.2916666498 -1.715980125
H -0.4397750922 1.7708410062 0.521176797
H 0.1725571019 0.1447335903 -1.6891256543
H -0.436825259 1.6452383733 -2.586172362
H 1.0094314125 -1.3931103128 1.8328617511
H 3.0582447034 -1.305045157 0.1993294565
H 3.2437731593 0.4045927116 0.5968806904
H 3.5697249313 -0.826921273 1.8163522747
