12
0
O 2.7077871312 -0.576676063 0.1442933996
C 1.9146568747 0.2538843952 0.0129935904
C -0.7166982149 -1.3445910497 -0.1946837776
C -1.1435637618 0.0236506558 0.2326271629
C -0.3838704375 1.1177875111 0.2371406685
C 1.0334036377 1.2201571607 -0.1246022689
H -0.3741514144 -1.94701603 0.6523326779
H 0.0994423447 -1.3020544839 -0.9196259882
H -1.5463824768 -1.8826797527 -0.6552335359
H -2.1697357402 0.1337760915 0.567874459
H -0.8324532354 2.056501301 0.5437798449
H 1.4443682928 2.1579892641 -0.4773582325
