17
0
C -1.1405364362 1.2997324008 -0.2407823907
C -0.8859074864 -0.1390260381 -0.5848280935
C -1.8339734063 -0.9172453441 -1.0963635342
C 0.4731723929 -0.6904562617 -0.328882771
C 1.7438314475 0.1679540634 -0.4581626186
C 1.2683914972 -0.2912040306 0.8401726395
C 1.4040268356 -0.3106322899 2.1459943374
H -2.1901600141 1.551730167 -0.3856626672
H -0.8715016011 1.509546271 0.7971646949
H -0.5453881334 1.9655736148 -0.8709284619
H 0.6897930774 -0.8297515585 2.774634156
H -1.6414875747 -1.9542001523 -1.3467105315
H -2.8341349154 -0.542821384 -1.2793301763
H 0.5958290825 -1.7217505179 -0.645273787
H 1.6276869321 1.2172036228 -0.7042938777
H 2.6128572265 -0.3048641314 -0.9003098052
H 2.2350940762 0.1872505687 2.632310887
