12
0
O 0.2218845661 1.4522693119 -1.1293257674
C 1.1013333236 0.6702213418 -0.4683763398
C -0.8080000342 -1.0594143365 -0.1850334748
C -0.8734544975 -0.1564031107 0.9924062945
C 0.4540119865 -0.4016950305 0.3169289148
O 2.2877008297 0.8514620173 -0.5318030075
H 0.744049559 2.1100941302 -1.6037342065
H -0.8900661973 -2.1262393542 -0.0281392411
H -1.2110126583 -0.697372651 -1.1204661203
H -0.9986983718 -0.5905648564 1.9749051732
H -1.3219098973 0.818041321 0.8581185806
H 1.1734803919 -1.019940783 0.8338971943
