12
0
N 2.1472640203 -0.5021098065 -0.2841201105
C 2.7151418096 -1.5585076266 -0.3567980843
O 3.3649920938 -2.5248399036 -0.3847858755
N -0.7030353928 0.2065523939 -0.7280083084
C -1.9289699037 0.0785687452 -0.8866308708
C -1.5935649511 1.3573618538 -0.2989260827
H 0.5749745576 -0.043284466 2.1464322382
H 1.1803792977 -0.2844721718 -0.5168619793
H -2.633742845 -0.6511953041 -1.2588067251
H 0.0633131686 0.0913398019 2.6719450972
H -1.5574561758 2.2510326636 -0.912370624
H -1.6978346793 1.5131268203 0.7694303251
