14
0
C -2.4730007223 0.7579462661 -0.5119688377
C -0.601804177 -0.1964281256 0.8055183829
C 0.3163838165 -1.1059289994 0.9461696053
O 1.6288513217 -0.9994430447 0.5138137697
C 1.8655645329 -0.2199574952 -0.5546140542
N 3.1759834502 -0.1937935001 -0.7244156789
C -1.5550801923 0.6776159579 0.671643026
H -3.5137252592 0.6349469801 -0.2021417195
H -2.231282816 -0.0077577514 -1.2470944286
H -2.3889782541 1.7364521987 -0.9904823248
H 0.1450062961 -2.0476740122 1.4504999077
H 3.8220962512 -0.6834353658 -0.1160358069
H 3.5481159224 0.3240547999 -1.4977143614
H -1.6934471702 1.4152900915 1.4594085203
