16
0
C 3.299501874 0.2600694463 0.2782881509
C 1.9457453208 -0.0880246183 -0.1335124937
C 0.8344442515 -0.3728457964 -0.4799868621
C -0.5284526058 -0.7230363556 -0.8723529357
N -1.5029816973 -0.4534069759 0.1860991876
C -3.0109238606 -0.2647250564 -0.049574044
C -2.1110806318 0.8786061133 0.2818258415
H 3.7579917997 0.9393245721 -0.4414878529
H 3.9226164349 -0.6318636077 0.3540849987
H 3.2885314303 0.7535547202 1.2510125383
H -0.8435021915 -0.155432819 -1.7493945869
H -0.5935351848 -1.7829886747 -1.129327775
H -1.2722071411 -0.9044735819 1.0593450505
H -3.1189700988 -0.3238815121 -1.1406328849
H -1.6941806926 1.5649176504 -0.4557257254
H -2.126938007 1.2994194959 1.2841003931
