14
0
C 1.7365821265 0.0968303275 0.6012860417
C 0.5175228388 0.3456814956 -0.2395113053
C -0.2677914691 -0.8682307813 -0.746420209
C -1.454115148 -0.3036369967 0.0234256758
O -0.6137148404 0.7746256026 0.6212042416
C -1.8957749806 1.0084714352 -0.4639651146
H 1.5356197504 -0.6442979348 1.3765603105
H 2.0760090849 1.0189538022 1.0749152305
H 2.5412643938 -0.2778380133 -0.0348076819
H 0.6693372641 1.1235925362 -0.9854065974
H 0.1152522836 -1.8106616625 -0.3545338555
H -0.4189285188 -0.9305513683 -1.8213866817
H -1.9841590846 -0.9185502586 0.7491714541
H -2.6290957006 1.3624258161 0.2769434913
