17
0
C 1.894614593 0.4302814857 0.1783296231
C 0.5074665027 -0.108559343 -0.0789806331
C 0.2039179248 -1.5012061271 0.49514368
C 0.1838035631 -1.9712015414 -0.957930008
C -1.9794888074 0.540739393 -0.3045889519
C -0.5569305307 0.9695892066 0.0286657343
O 0.4583591733 -0.7596826097 -1.4043718009
H 2.1170972644 1.2596189888 -0.4951509725
H 2.6468762562 -0.3456130191 0.0321498377
H 1.9645419645 0.7916774011 1.2062373864
H -0.7422511385 -1.6399157601 1.0172426441
H 1.0012596165 -1.9592734312 1.0824509937
H -2.0402910319 0.1106168342 -1.3050341809
H -2.3633912367 -0.1960077284 0.4027208031
H -2.6469705386 1.4024180064 -0.2710832313
H -0.2591172697 1.7901224876 -0.6314150683
H -0.5111803048 1.3638727567 1.0487001445
