12
0
N 2.8135143651 -1.329407385 0.2728010368
C 1.8826369183 -0.7535282467 -0.0689857692
C 0.6824282205 -0.0315541076 -0.4918892216
C -0.5477790406 -0.9290559997 -0.6115736143
N -1.5687289129 -0.4619099261 -0.0456034647
C -1.2118720016 0.8212827974 0.5511710359
N 0.2455843134 0.9726136121 0.4742916304
H 0.8983592601 0.4194418515 -1.4690777703
H -0.5509308102 -1.8652834406 -1.1607621379
H -1.5626747983 0.8753939516 1.5821770272
H -1.7215564091 1.6027870025 -0.0202333916
H 0.6647338954 0.7851518905 1.3739296392
