16
0
C -1.7283713451 0.5741453224 -0.6911301255
C -0.407531244 0.3622959957 0.0047236654
C -0.5145282347 0.0761938277 1.4800480671
C 0.7508662745 -0.0610769151 -0.7887943365
O 0.6094192161 1.2918960939 -0.3706354278
C 1.9307005858 -0.8310456058 -0.2721182051
H -1.5770692353 0.7968776601 -1.7473315673
H -2.263719703 1.4114319579 -0.2376457931
H -2.3567021099 -0.3154313134 -0.6075295275
H 0.5689613371 -0.1986714713 -1.8554583101
H -1.0703333205 0.8773337081 1.972311967
H 0.4626068038 0.0091413185 1.9532944108
H -1.0521430699 -0.8593691293 1.6498638457
H 1.7856034421 -1.9006373793 -0.4394913577
H 2.8345245353 -0.5266441313 -0.8034346441
H 2.0943520676 -0.6627929388 0.7908013392
