12
0
O 1.0438761264 0.9619080888 -0.9655830669
C 0.4786745717 0.9554659256 0.3563562826
C -0.908890449 0.3708718147 0.4027409659
C -0.7358019609 -0.9346185495 -0.3935860544
O 0.6544157659 -1.2752779092 -0.3263027114
C 1.3477906224 -0.111101874 -0.1006039908
H -1.6651889321 1.0191755354 -0.0403737074
H -1.1797579423 0.1814491023 1.4440749981
H -1.3007961382 -1.7735735643 0.0105225557
H -1.0147117603 -0.7870316826 -1.4380972165
H 2.3889912322 -0.2723164527 0.1467633632
H 0.7808338642 1.7649035653 1.0105085815
