16
0
C 2.6293534473 0.2294093841 0.3034726489
C 1.2720428881 0.2845524175 -0.3221812833
C 0.2343119141 -0.4481444403 0.052833943
C -1.1382999385 -0.4018040674 -0.5665247071
C -2.2227068119 -0.283349386 0.4989010204
O -1.2718343487 0.6114834674 -1.5441710392
H 2.9239220512 1.2082058511 0.6910995522
H 2.6646454691 -0.4866307256 1.1257533563
H 3.3845999893 -0.0577109705 -0.4328103993
H 1.1482915347 0.9674989845 -1.1589242048
H 0.3488710625 -1.1553496519 0.8726619197
H -1.174492471 1.4611092055 -1.1058071317
H -1.2950860098 -1.3352470176 -1.1180637502
H -2.1678138575 -1.1106019897 1.2093436832
H -2.1063805027 0.648257549 1.0601940005
H -3.2083414162 -0.2890836102 0.0326033913
