15
0
C -1.4994262121 0.5132501535 -0.2074767901
C -0.0890596935 0.0549665508 -0.5236495384
O 0.5687527215 2.0482136789 1.8870948948
C 0.1083750414 -1.1670375583 -1.4282478048
O 0.7444414838 -1.8877730018 -0.3292365072
C 0.5793194647 -0.8384745504 0.5078810006
O 0.8970715041 -0.7761682975 1.6548401367
H -2.1325666309 -0.3275492079 0.0834824664
H -1.9468013731 0.9916903327 -1.0800422296
H -1.4780051652 1.236299719 0.6075059601
H 0.5513441122 0.9013934993 -0.7738298545
H 1.0921568032 2.5401847705 2.5193938268
H 0.7995749308 -1.0572219352 -2.2620867953
H -0.8021765585 -1.6775761155 -1.7406186411
H 0.7393115714 1.1132259617 2.0715298755
