15
0
C -2.1997986447 1.2159959903 -0.9856441086
C -0.8050527342 0.7917553483 -0.6678598653
C 1.6977899651 -0.2033710075 0.0921491676
C 2.8885578294 -0.8586586006 0.6261426381
N 3.814770829 -1.3825824778 1.0543505394
C 0.4427403687 -0.8018670361 0.7129599558
N -0.7697767811 -0.1702787604 0.2025532863
H -2.2967298395 2.2850517594 -0.7829202315
H -2.3609131939 1.1058452595 -2.0606248261
H -2.9969472858 0.6759519739 -0.4476163303
H 1.7505314103 0.8672829671 0.2903140403
H 1.6772955758 -0.3108991065 -0.9925222915
H 0.4708939351 -0.6847804003 1.7992755168
H 0.3962113106 -1.8733838017 0.5026598845
H -1.6270847448 -0.5618181076 0.6006876248
