12
0
O -0.4606514509 -0.4156458806 -1.3273893368
C -1.3653250531 -0.4852269894 -0.3114829094
C -0.9956426982 0.1223251797 0.8064821016
C 0.3464465176 0.7558468292 0.5614572285
C 0.7569193462 0.1112863185 -0.7749520099
O 1.698864192 -0.9011182469 -0.6451141838
H -2.2745815232 -1.0198926302 -0.5459122849
H 1.385579767 -1.5317003583 0.0100491974
H -1.5725049203 0.1824088622 1.7151653661
H 0.2673895077 1.8426226797 0.4694481987
H 1.0960234046 0.5458395593 1.3263846559
H 1.1670279104 0.8085666768 -1.5024900234
