12
0
O 2.1155192527 -1.2436432699 -0.6076524247
C 1.3892440381 -0.3003221084 -0.4981762731
C 0.3411389768 -0.1837219925 0.6091912308
C -0.8881367148 1.599093313 -0.1944291709
N -0.2086303021 1.1326799625 0.7607831061
C -0.6814460055 -1.3001757873 0.3550123331
O -1.8388533194 -1.1243699442 0.1243649743
H 1.4187126383 0.5550487543 -1.2032304628
H 0.8567514785 -0.4781075702 1.530344694
H -1.0874948634 1.0696407185 -1.1315293615
H -1.314306581 2.5948214985 -0.0914459599
H -0.2329115983 -2.3104135742 0.4019573146
