13
0
C 1.8070585698 -0.0906626252 0.1530485821
C 0.3270557385 0.0441881551 0.0606581491
C -0.5782955633 -0.9799930729 -0.5554708322
N -1.9322752532 -0.4698872379 -0.4448839341
C -1.8334233239 0.6642272195 0.1389893787
C -0.4615977774 1.0423436766 0.4796875079
H 2.2544636672 0.7725751557 0.6449910656
H 2.0838557463 -0.9862033996 0.7149670339
H 2.2532603753 -0.1860532446 -0.8400718401
H -0.3416017947 -1.1635722519 -1.6091981738
H -0.5111700045 -1.9499024606 -0.0507506211
H -2.7147048103 1.2642416725 0.3473553102
H -0.1577185697 1.9545344132 0.9745413737
