11
0
O 2.058964573 -1.4504691823 -0.3532365746
C 1.150637784 -0.681812623 -0.2706572617
C 1.1729655661 0.7620109193 0.0763785718
C -0.0757614826 1.1910562448 0.133285283
N -0.9692054584 0.1238125913 -0.1718819377
C -0.998462886 -1.1041139057 0.7870724852
N -0.2191542695 -1.0464630103 -0.501768277
H 2.0697298482 1.309385338 0.3167213411
H -0.4896037402 2.155170867 0.3872246998
H -1.7168568072 0.3025252777 -0.8305079105
H -1.9355631273 -1.6034175166 0.4941335808
