12
0
N 2.098460953 0.7330563641 0.6369076482
C 0.8850409728 0.5022973867 0.0589524416
O 0.7721861651 1.2189386716 -1.0763593805
C -0.0707537046 -0.3019706649 0.5800240798
C -1.3867965066 -0.4738492678 0.0268617633
N -2.250443005 -1.2597949241 0.5370041236
H 2.8300897535 1.0494847844 0.0251493348
H 2.3772579247 0.1125533923 1.3743347695
H 0.1540921588 -0.8512114543 1.4848649385
H -0.0749886313 1.0379798272 -1.4899859881
H -1.6336225656 0.1157304929 -0.8719313018
H -3.1163725147 -1.2393656078 0.0069035712
