8
0
O 2.5698307699 -0.1272655387 0.7428672409
C 0.5497872403 -0.0336570039 -0.2051029613
N 1.6886554452 0.4039282147 -0.1828538807
N -2.651601681 -0.4466320069 0.1958280574
N -1.6166772358 0.1978060324 0.2786638771
N -0.5797128614 -0.465610042 -0.4329326715
H 3.3739890399 0.3717887215 0.5764762853
H -3.3477427171 0.0953056228 0.7188570528
