15
0
C 2.3977375287 -0.1618666429 0.220794825
C 1.057690044 0.0889694792 -0.3851176855
C -0.0800871195 -0.4454845375 0.1381702613
O -0.3632277848 -1.16909314 1.0942191474
N -1.2738400827 -0.0025138778 -0.6657722177
C -2.4449023613 -0.3498193269 -0.3166999049
H 3.0828649366 -0.6361653875 -0.4884229077
H 2.8729403185 0.7652794998 0.5559093489
H 2.2958802614 -0.8191546112 1.0843476155
H -0.5269009298 1.8923608592 1.5384790888
H 0.9914796327 0.7111616581 -1.2707815439
H -1.1194589101 0.5890125368 -1.4716459131
H -3.310335205 -0.0260614213 -0.8792042321
H -2.4972525759 -0.9778958314 0.5679202545
H -1.1278077531 2.2291687433 1.8268588633
