10
0
O 1.7149766103 -0.1743528111 0.0638604459
C 0.3613278082 -0.1781302472 -0.301798548
C -0.6368233553 -0.7578541032 0.6638570886
N -1.5808719075 0.0459351338 0.9348112078
N -1.3247899489 1.2990524397 0.2576716832
C -0.2387324218 1.1927600553 -0.3899008745
H 2.0891793383 -1.042738577 -0.0932304997
H -0.6200698512 -1.7628017598 1.0697114384
H 0.2052010407 -0.6659574483 -1.2791574637
H 0.162833687 2.0133993179 -0.9707514781
