14
0
C -2.0041249178 0.3272307777 0.2731011355
C -0.8243399373 0.8542998753 -0.4927012382
C 0.3011270531 1.2247473253 0.0449900993
C 1.427903206 1.5813391466 0.5882696444
N 1.9074399491 -1.8973901146 -0.1291058764
C 0.8591946312 -2.2087093395 -0.643240451
O -0.1779764676 -2.3968108105 -1.1270093741
H -2.8841823785 0.9530030155 0.1073603117
H -1.796932309 0.3000745093 1.3424155882
H -2.2523985509 -0.6837488893 -0.0577472607
H -0.9183881859 0.923567436 -1.5735522128
H 1.5979848239 2.6020597384 0.911405397
H 2.2237249005 0.858485261 0.7277993005
H 2.6629921831 -2.531295931 0.0562799367
