15
0
N 2.4340844838 -0.5342889078 -1.0268249663
C 1.178131674 -0.3383273425 -0.4686734002
C -0.7300048699 0.2334586341 2.007373221
N -0.1413571968 0.5980241154 2.9221710769
C 0.2029537164 0.406095076 -0.9836683776
C -1.1861425129 0.5520349367 -0.4354319891
C -1.4886852488 -0.2288009232 0.8454680281
H 3.1730176572 -0.6888519674 -0.3623987933
H 2.6967383512 0.1289988808 -1.7377436293
H 1.0290112019 -0.9038130545 0.4455593764
H 0.4024938923 0.9702944067 -1.8916480662
H -1.4009651416 1.6104063725 -0.2559743822
H -1.9129360807 0.2250195129 -1.1863246045
H -1.2847954609 -1.2936174054 0.7071411889
H -2.5485244654 -0.1373073343 1.0904073172
