14
0
C -1.4694133655 1.6853661823 0.3457536544
C -0.4430703388 0.5862059152 0.1897248199
C 1.0100656165 0.8881938067 -0.0317773845
C 0.7089738375 0.4412468379 1.1403445608
N 1.5824937459 -2.4406137173 -0.5461775774
C 0.691663807 -2.9784873203 -1.1564098517
O -0.0864352037 -3.5970231288 -1.7571778518
H -1.8844151503 1.9754503997 -0.6226246026
H -1.0238197347 2.5719778026 0.8014197279
H -2.2998145816 1.3604991362 0.9772643294
H -0.8484394927 -0.3228614346 -0.2594876622
H 1.7496184201 1.2735347286 -0.7130362725
H 1.0155301869 0.1865421166 2.1406720044
H 1.5416602536 -1.5156063248 -0.1436048941
