18
0
C 2.3397767591 -0.4248685665 -1.1428701099
C 1.4311220301 -0.7840687776 0.0030820838
C 1.0615534043 0.3713958924 0.8453632932
N 0.0937715101 -0.0732010275 -0.1806114809
C -1.1630933948 -0.7370987395 0.1562092652
C -2.292757374 0.2403512881 0.4238718169
O -2.1158451276 0.9973660142 1.6008097555
H 2.1870475456 -1.0856768806 -1.9990131326
H 3.3754182806 -0.5564676981 -0.8226672219
H 2.244446539 0.623247043 -1.4987277863
H 0.0173127716 0.5806989856 -0.9561860902
H 1.4285528534 1.3841091225 0.6434632769
H 0.7297767252 0.2223651109 1.8693262001
H -1.4218510944 -1.3976366066 -0.6753082346
H -0.9645627316 -1.358938808 1.0276104787
H -2.4432767469 0.8950580214 -0.4464981612
H -3.2158370237 -0.3255167761 0.5590946951
H -1.3905869257 1.6118964024 1.4761683522
