9
0
N -0.9924801483 -1.0720410457 0.2961799868
C -0.9418977475 0.3516972457 -0.0255826677
C 0.5025983851 0.6417762111 -0.1754720588
C 1.1185514916 -0.5158203972 0.0492848435
N 0.1623739329 -1.5373026578 0.3334150406
H -1.5327522431 0.5222414493 -0.9310418283
H -1.4310907788 0.9048082652 0.7824244453
H 0.9426915485 1.5965079452 -0.4164199716
H 2.1682285597 -0.7662090157 0.04464021
