16
0
C -0.2915981088 2.4469959682 -0.3764393494
C -0.2216754349 1.358002892 0.5996765911
C 0.8916890988 -1.4727488872 0.7003581758
O 1.8204459219 -2.3867997332 0.1511600115
C 0.0451960095 -0.8075133598 -0.376812117
C -1.0132858225 0.1826119908 0.1825605328
H -0.598220111 2.1924129275 -1.4020444228
H -1.1294673024 3.0143441026 0.0738820481
H 0.5615053798 3.1249358009 -0.3614036346
H 0.2388088961 -1.9670457526 1.4320509458
H 1.4759756721 -0.7281167035 1.2389407415
H 1.3401101106 -3.1176144818 -0.2417873744
H -0.4966631363 -1.5731866554 -0.9400757953
H 0.7054827859 -0.3082225554 -1.0919176965
H -1.7595309598 0.3766643535 -0.6036774656
H -1.500988999 -0.2959749067 1.0358838092
