16
0
C 2.1014228712 -0.2081768514 1.0747101526
C 0.9853450682 -0.7280937901 0.2559794724
C -0.191008587 0.9055396653 -0.7210786812
C -0.2657447509 -0.0708758153 0.5471297923
C -1.5520461312 -0.6624968112 -0.0598394902
C -1.261866596 0.038147507 -1.4009739738
H 1.9417579759 0.7450144035 1.5999061411
H 3.0588404682 -0.2110163578 0.5525343051
H 2.1889778099 -0.9945513147 1.8417429316
H 0.7667863136 1.0045839086 -1.2330428483
H -0.5283264816 1.894459257 -0.4128523417
H -0.3552218854 0.4530774331 1.5081442741
H -1.6045038563 -1.7501155792 -0.0734691315
H -2.4415995574 -0.2631608409 0.4292536968
H -2.0903207274 0.5738728578 -1.8634903714
H -0.8203319339 -0.6365456717 -2.1319119281
