15
0
C -1.3529432244 0.6528429388 -1.3422204817
C -0.1028435934 0.1495454656 -0.6529821861
C -0.199935798 -0.8707646816 0.5084143818
C 0.6131180201 1.0977554784 0.2807666001
O 0.7605006565 2.262418184 0.3662037324
C 0.8395277295 -0.109999694 1.370016364
C 2.2550343092 -0.2526799282 1.2088531635
H -2.0723953697 1.033549037 -0.6150555498
H -1.8288631491 -0.1558438121 -1.8991524047
H -1.1187556351 1.4568333824 -2.0402223884
H 0.6373102433 -0.1923047866 -1.3841364649
H -1.1884448669 -0.8590583975 0.9696371011
H 0.0707642044 -1.8953547123 0.259814036
H 0.5114323601 0.2351142 2.3526058744
H 2.4281771132 -0.8375876737 0.2804102224
