14
0
C -1.571636834 -0.1743703358 0.7090374939
C -0.585707581 -0.0806391155 -0.4653345315
C -0.6818736547 1.2299785003 -1.1095510333
N -0.7877685477 2.2613334937 -1.5996008432
C 0.8289865802 -0.3941581048 -0.0370794031
O 0.8922367645 -1.6934077937 0.3570783283
C 1.8486775181 0.4524297108 -0.0290580094
H -1.3298088515 0.5720197093 1.4657969855
H -2.5912668161 -0.003730617 0.3650244311
H -1.5107881371 -1.1642495044 1.1576390025
H -0.8628504503 -0.8264421106 -1.2175428463
H 2.8319435649 0.1442774115 0.3058516072
H 1.7822660988 -1.8954061758 0.6554618785
H 1.723979346 1.4710889318 -0.3644180602
