15
0
C 1.8254454658 0.2887514171 0.1137986389
C 0.3348050201 0.149564151 0.1151528732
C -0.5854731502 0.4240455567 1.2923491581
C -1.2955317918 -0.6853980279 1.1084985616
O -1.6647856403 0.6399536699 -1.4386436667
C -0.4959621476 -0.0449383688 -1.1354948604
C -0.4914597955 -1.1224671818 -0.0964397324
H 2.2613992218 -0.2039812553 0.9858768865
H 2.2632574654 -0.159618102 -0.7803041627
H 2.1249515521 1.3398757805 0.1409183939
H -0.7115744275 1.2972057536 1.9198574945
H -1.4368629288 1.5353408333 -1.6950374553
H -2.2189134005 -1.062489602 1.5270910305
H 0.1110513168 -0.2850076134 -2.0109781755
H -0.1072637596 -2.1135050109 -0.2980969842
