13
0
C -1.1274821243 0.5439310893 0.0179209918
C 0.047096496 -0.0193709035 -0.742590409
C 0.5056525151 -1.4324075952 -0.4969401055
C 0.2621816416 1.0438777184 0.2818805983
O 0.9154710902 0.6728772829 1.4583352704
H -1.5587637009 -0.0970299711 0.7779780214
H 0.4986880634 1.127702111 2.1920184766
H -1.8314375908 1.1911443355 -0.4888316248
H 0.1421371414 0.3156545198 -1.7698991567
H 1.54958701 -1.5607453018 -0.7900192375
H -0.0977561879 -2.1380600259 -1.0716429023
H 0.4260734064 -1.6907348846 0.5587312007
H 0.5185552398 2.037380625 -0.0770941235
