15
0
O 1.2419456022 2.9809026193 0.4812709457
C 0.9951143711 1.9163802792 0.8690979292
C -1.078463951 -0.2571305321 -0.9966363346
C -0.90511492 -1.0126048506 0.3361186277
C 0.5535866398 -0.4861439751 0.4127872032
C 0.4577426972 -0.1636965902 -1.0981602916
C 0.714522333 0.7156421978 1.3065509931
H -1.6030295609 -0.7706916531 -1.801673992
H -1.5353290425 0.7223108346 -0.8528687173
H -1.5692884931 -0.7480771036 1.1588072888
H -0.9275455582 -2.094772598 0.1966964148
H 1.2998822704 -1.2359218281 0.6825784014
H 0.8754298361 -0.9746279382 -1.6953709809
H 0.8904198721 0.7747359879 -1.4494310161
H 0.5974149039 0.6219531504 2.3795215287
