12
0
O -1.8751351283 0.4020317813 -0.1047734109
C -0.6970270225 -0.3442823284 -0.3685186306
C 0.4281705372 0.4733649718 -1.0231187827
C -0.005541397 -0.8037857562 0.885365305
C 1.1133515955 -0.0995080933 1.0218039982
O 1.4004439335 0.741405547 0.0024625044
H -1.7059556411 0.9581726308 0.6600153002
H -1.0193157965 -1.1547643414 -1.0228310047
H 0.9277136164 -0.0963912899 -1.8101380622
H 0.0679473834 1.4198518273 -1.4243638491
H -0.4064942367 -1.5113588821 1.593251268
H 1.8300591562 -0.0908600668 1.8315353646
