13
0
C 2.3991256544 0.1687195427 0.1572881607
N 1.2774326655 0.7180444102 -0.0940619192
C 0.089275089 0.1856006769 0.2729058557
C -0.2041189246 -1.0638801694 1.0022115768
C -2.1871829875 0.6919041391 0.0955946072
O -0.9246158807 0.9197799839 -0.0961531668
H 2.514896839 -0.7795715956 0.6887001318
H 3.3032236959 0.6666961306 -0.1774828324
H 0.7035243381 -1.5988006723 1.2690353114
H -0.7667602969 -0.8544303096 1.9227427398
H -0.8344352134 -1.7297829837 0.3963111437
H -2.8440500972 1.4461321472 -0.3015889275
H -2.5208958816 -0.1940262999 0.6121643188
