15
0
C 1.0061755098 1.153813793 0.1632523223
C 1.5669282713 -0.1837975623 -0.2752541343
C 0.696257925 -1.2965104347 0.2341583709
O -0.1628530777 -0.9842837804 1.3540104077
C -0.866988574 0.0921795653 1.1517055802
C -0.426693464 0.611871345 -0.1904221936
C 0.2519499618 -0.5550864566 -0.9503414586
H 1.1803063319 1.4817304924 1.1911344939
H 1.2803272828 1.9465183669 -0.5290516007
H 2.5854786095 -0.3819256154 -0.5808642445
H 1.0412110995 -2.3188712263 0.2293460062
H -3.5112749773 0.0570306729 0.5858623423
H -4.033693035 -0.085615199 0.0707428715
H -1.1108803519 1.288239953 -0.6889239078
H 0.0243654886 -0.9625239136 -1.9242548551
