16
0
C -2.3752175393 -0.1047449638 0.5238565697
C -1.1357868456 -0.3183094547 -0.3338371133
C 0.0960666917 0.3898145105 0.2215352212
C 1.3197190185 0.1551020201 -0.6169149749
C 2.6572030585 0.055946288 -0.0444807627
O 1.9607959293 -1.1046707146 -0.4687091427
H -3.2464423324 -0.6038877704 0.0965282659
H -2.2283247539 -0.4988897062 1.5323902455
H -2.6134478314 0.958014019 0.6166352275
H -1.3266331658 0.0367609205 -1.3521039186
H -0.088624548 1.4684736447 0.2805091579
H 0.2967991638 0.0448720563 1.2406893587
H 1.2435439785 0.4796427697 -1.6548080978
H 3.5251140971 0.3212881342 -0.6416310213
H 2.782695934 0.1541374366 1.0309140005
H -0.9195358551 -1.3871111897 -0.4172990154
