15
0
C 2.2897446538 -0.5739700884 0.0362095792
N 0.9534309259 -0.0572097602 0.2425584392
C 0.7239154209 1.3654011708 0.4124177162
C -0.6327001456 1.346964404 0.5612821574
C -1.1277488945 -0.0112084398 0.471933258
C -2.3450083106 -0.5564447983 0.5250103891
N -0.0213222477 -0.8592859618 0.2642008333
H 2.6920689342 -0.1162052466 -0.8659768005
H 2.2464801345 -1.6562071976 -0.0534029693
H 2.9055121842 -0.2664054429 0.8795256381
H -0.3371740252 0.697609752 -2.3575052346
H -1.264919996 2.2085472224 0.7171338582
H -0.3824070118 0.0377034909 -2.7039129457
H -3.2260806053 0.0547154018 0.6745336738
H -2.4690390169 -1.626404506 0.4135064078
