11
0
O -1.4793662529 1.9125648267 0.5713453672
C -0.8017718932 0.9295621906 0.4971893578
C -1.0576915333 -0.435236153 -0.1683601406
N 0.3396713588 -0.8005823879 0.117251615
C 1.3042185023 0.2370821608 -0.2372334173
C 0.5473801402 0.5608041238 1.0003846984
H -1.7415236799 -1.0576430341 0.4063296635
H -1.3166502053 -0.4539736995 -1.2286361771
H 1.1143434465 0.7018142413 -1.2043298884
H 2.3321799469 -0.0890748684 -0.1139991504
H 0.6254831701 -1.6932414004 0.4819680718
