9
0
C -1.0884340205 0.420881232 0.5492994464
N -0.2527985078 -0.1552644956 -0.5851399699
C 1.1085497324 -0.1899869565 -0.0710265056
O 1.616885572 -1.211819912 0.2812216024
H -0.8146199168 -0.1502831107 1.4380030807
H -0.7848301923 1.4657674443 0.6527471068
H -0.5599495564 -1.0993394127 -0.8061495413
H -0.364848968 0.4292782043 -1.4066792656
H 1.5257968575 0.820002007 0.0302880463
