17
0
C 2.2702962832 -0.292356506 0.2933794867
C 1.1043291838 0.6837274768 0.3805914289
C -0.1683632032 0.026793498 0.8801177545
O -1.1443635735 1.1004268036 1.182585281
C -2.1839334933 1.1591052979 0.4195451265
C -2.0689994309 0.0308352784 -0.5721645615
C -0.900596007 -0.8576068406 -0.1190392625
H 2.0577453432 -1.1171383642 -0.3902595518
H 2.4975085261 -0.7217749573 1.2718522139
H 3.1698142765 0.2080767369 -0.0665077537
H 0.9099233012 1.1349746129 -0.5979693362
H 1.3529507845 1.5021480493 1.0601577279
H 0.0123239449 -0.4658066933 1.837113311
H -1.2669571781 -1.7673318993 0.3557323685
H -3.0251305946 -0.4874600116 -0.6534590951
H -1.9048085082 0.5075046038 -1.5452648117
H -0.2522446547 -1.1519500855 -0.9438453264
