13
0
C 1.0674815402 -1.6422071327 -0.5023218455
C -0.4562664735 0.548454761 0.3739182502
C -0.8641260726 1.9327526611 0.3487494122
N 0.1746675053 1.38818471 -0.5670525492
C -0.5485612634 -0.6591814813 0.8922197799
O 0.0967415798 -1.788882726 0.5123384439
H 1.5319894171 -2.618003967 -0.6289477919
H 0.6080871289 -1.336192863 -1.4478618791
H 1.8235828085 -0.9048616551 -0.221371732
H -1.8352549337 2.1791138282 -0.0693126041
H -0.486088767 2.6347406375 1.0832129284
H -0.1906911459 1.2607027797 -1.5045304197
H -1.2130723237 -0.8406665524 1.7265200068
