15
0
C -1.1861756782 -0.7105553983 -1.0722157644
C -0.3493803237 -0.1041867628 0.0467280241
C -1.1064932295 0.0708471904 1.3562359184
C 0.9753373185 -0.7388603255 0.2068578208
C 2.1586697335 -0.1539479342 -0.027220057
C 0.4156877714 1.0912219634 -0.3624665969
C 1.7510140646 1.1793282949 -0.441513303
H -0.5999933764 -0.8142400654 -1.9837287201
H -2.0424528429 -0.0663357729 -1.2737089043
H -1.5423892363 -1.6942854978 -0.7651806898
H -1.467278647 -0.8991520294 1.6995943505
H -0.4631056993 0.5001020856 2.1223494842
H -1.957765687 0.7330559617 1.1961378751
H 3.1290157898 -0.6180476833 0.084639135
H 2.3133230424 2.0522019736 -0.7434975727
