12
0
O -1.864076341 1.1872107511 -0.5405321868
C -1.3406243102 0.1838199179 0.2688882691
C -1.0472436232 -1.1359530648 -0.3925921426
C 0.0492600595 -0.2688359129 0.0750972509
C 1.3027113682 -0.0221154001 0.1901894491
C 2.5732606599 0.2448627938 0.3014970645
H -1.4208110617 2.0111830734 -0.3293142085
H -1.7372653549 0.1553050384 1.2818186101
H -1.2128363498 -1.1799006422 -1.4629879679
H -1.2618463317 -2.0467694481 0.1541270607
H 3.1321082183 -0.0500873601 1.1818000123
H 3.1051150665 0.7633612536 -0.4876372108
