15
0
C -1.2312793005 1.2730114186 0.3068194396
C -0.2250436196 0.5012318457 0.6561251976
C 0.1853404754 -0.2953135895 1.8661562585
O 1.3438003859 -0.8004210524 1.1606488753
C 1.0058980287 -0.0390316111 -0.0329803302
C 0.6811343443 -0.8772597846 -1.2463307026
O 0.8129046469 -2.1263267091 -0.9498789053
H -2.0345550251 1.4919216155 0.9998822474
H -1.2838799538 1.7074272938 -0.6832397411
H -1.2401534646 0.9787496784 -3.653046006
H -0.4948938223 -1.0961739261 2.1679338071
H 0.48303308 0.2881883349 2.7403973972
H 1.7836683037 0.6867958222 -0.2865761221
H -0.8092060473 0.5365570608 -3.2301484595
H 1.0971899686 -2.2221783972 -0.006024956
