8
0
O 1.7766405527 -0.0306350437 0.2112417941
C 0.4728177047 -0.2698660205 0.1339005776
N -0.5185003748 0.5984491447 0.3877954597
N -1.6890640564 -0.045349774 0.1927329264
N -1.3848381057 -1.229214751 -0.15699544
N -0.0463034163 -1.4134056837 -0.2070228617
H 1.9578730272 0.8765424877 0.46537076
H -0.5114993314 1.5606686406 0.6759367837
