16
0
C -1.8341265218 0.5023914522 0.1909063908
C -1.5742782855 -0.8870913161 0.7574280439
N 1.7248557344 0.7381399024 0.3336161475
C 1.3379270161 1.7652285183 0.8708891016
O 1.0488970555 2.6789663009 1.5234987075
O 1.4811190405 0.5287858657 -1.0187701598
C 1.8630764399 -0.7993153597 -1.3361462976
H -1.1386050508 0.7339575486 -0.6184672115
H -2.8464167144 0.5867491906 -0.2089372583
H -1.7200209553 1.2711224108 0.958301415
H -2.2692056067 -1.1247177601 1.5650717358
H -1.6890133409 -1.656082859 -0.0096967887
H -0.5622155129 -0.966830814 1.1601840332
H 1.6587984932 -0.90305429 -2.4002268381
H 2.9262378138 -0.9546098645 -1.1403663225
H 1.2693273947 -1.519047926 -0.7684046989
