17
0
C 1.8593760394 1.2072947777 -0.2614008161
C 0.15062163 -1.518203693 0.2427208007
C -1.0700261478 -1.5602800955 0.9967192785
C -0.9791084971 -0.2613078984 0.0122564599
C -0.2721909759 -1.213665621 -1.0947781111
C -0.5773537677 1.1016833574 0.4534478053
C 0.588645359 1.7276970512 0.3324403954
H 1.9153193234 1.4431153349 -1.3287328198
H 2.721254348 1.6789319894 0.2125479355
H 1.9353963528 0.1270334139 -0.1336642706
H -1.0088689542 -1.4054409342 2.0698298738
H -1.9522049634 -2.1294072629 0.6829034889
H -1.9981547267 -0.2485615503 -0.3645100619
H 0.4549445117 -0.7832300668 -1.777228431
H -1.0850418301 -1.7422782754 -1.6049836564
H -1.3922758777 1.6520652343 0.9172489851
H 0.6200951763 2.7462092384 0.710071144
