10
0
O 2.1908439015 0.047094619 -0.4739936773
C 1.0143558977 0.0999722999 -0.2462452315
N 0.1366193159 -1.1185658498 -0.0880109233
C -1.3235162781 -0.7126030939 0.1982811222
C -1.1818970693 0.6183378334 0.1827883206
N 0.1513086124 1.0955310646 -0.0704836515
H 0.4907397354 -1.7000597603 0.6685025279
H 0.1811212645 -1.6850839278 -0.9323865555
H -1.9517878202 1.357786508 0.340230561
H 0.4440674401 2.0546833072 -0.1196434926
