15
0
C -2.5904864121 0.8514880148 -1.7424927625
C 0.386733972 0.6027845738 0.6780902351
O 1.1084847179 1.2680915066 1.5807072495
C 0.5925381914 -0.5671480791 0.0762082714
O 1.6732855056 -1.4524057037 0.1619206997
C 2.4547765453 -1.5844244094 1.2165335291
O 2.419551459 -0.9479437688 2.2373230331
H -2.7109577825 0.083478684 -0.9789701205
H -3.3399364599 0.7057846189 -2.5185921564
H -2.7215988917 1.8347329912 -1.292693474
H -0.5166596333 1.1258941064 0.3843610807
H 1.7300902235 0.6407971369 1.9962101543
H -1.5965413787 0.7844393952 -2.1835168912
H -0.1162364719 -0.9283888819 -0.6511541431
H 3.1740444153 -2.390051185 1.0315492948
