14
0
O 2.3519404763 0.432113244 -1.6226126734
C 1.9171167506 -0.5244417506 -0.8442871064
C -0.9168858719 0.1544327409 1.3206706629
C -0.8234122994 0.998579234 0.0463248077
O -0.6839552769 -0.1735001013 -0.7726679974
C -0.9289968049 -1.0350204566 0.3555108326
H 2.7098448951 1.1380872161 -1.0724586866
H -0.0256655415 0.1982124837 1.9427855119
H 1.5475199162 -1.2834875101 -1.5644342168
H -1.8066376312 0.2946804124 1.9310405494
H -1.7276105342 1.558155826 -0.2118163658
H 0.0442130413 1.6576120279 -0.0388122369
H -1.8909050525 -1.5467197717 0.2582503994
H -0.1283160671 -1.7657035947 0.4838945194
