10
0
N -1.1217105531 -0.7414874177 0.0176953964
C -0.1059555519 -1.2299633506 0.5980704356
C 1.1383580559 -0.5218501798 0.6449890406
C 2.1900530432 0.0470174535 0.6999678295
C -1.0142130221 2.8735740784 -1.7631878025
N -1.0781753644 1.8272354053 -1.2636999171
H -1.1220854511 0.9045117714 -0.8162711354
H -1.9219447352 -1.3651291567 0.0737373041
H -0.1161674345 -2.2042797695 1.091040624
H 3.1179130132 0.5694451657 0.7366412247
