13
0
C -0.7315752337 -0.707096221 -0.5200259653
O -0.6607490272 0.6882852893 -0.7887987326
C 0.430963674 1.2104567159 -0.1695464477
N 0.8171727972 2.4059039515 -0.2164435195
N 1.0675701616 0.1900736447 0.511205037
C 0.2021578778 -0.9263421662 0.6757299763
O -0.4587236301 -0.8454406673 1.9244388868
H -1.7619670542 -0.9688850768 -0.2831123786
H -0.7693677711 -1.7170178535 2.1772007983
H -0.3940338417 -1.2632951592 -1.3984803945
H 0.205806284 2.9594453016 -0.8048423406
H 1.6935174627 0.4567791482 1.2514639571
H 0.7441293006 -1.874684907 0.6055051234
