13
0
N 2.2577164032 -1.2229649632 -0.2001970264
C 0.2489524419 0.7977394293 -0.3614812814
O 0.9107393981 1.5020722648 -0.9707937434
C -0.6714610211 0.0117985285 0.2486692511
C -2.0619842547 0.0382815085 -0.5250508274
C -1.9216780537 0.8432325752 0.6796691291
H 2.6274265497 -1.6186349967 0.6544363832
H 3.0238979527 -0.7630928758 -0.6749412723
H -0.3050950749 -0.8547750724 0.7781767753
H -1.9766644873 0.6452219772 -1.432943691
H 1.9590867681 -1.9931361994 -0.7850294729
H -2.296689867 0.4469245791 1.6206167703
H -1.8053567553 1.9295402447 0.6940480059
