13
0
C 1.1290542963 0.5393129185 -0.9065634598
C -0.1802341807 -0.1552181438 -1.2092711119
C -0.7354334993 -1.2288787113 -0.3215365171
C -1.3510178147 -0.0967080661 -0.2735355733
O -0.0131777867 0.1144915192 2.8208902935
H 1.3284472865 0.5477401642 0.1674333921
H 1.1185067097 1.5735656665 -1.2602902177
H 1.9651002641 0.0327394329 -1.3946977983
H -0.3967055683 -0.2279277409 -2.2764316876
H -0.3435734843 -0.2321865721 1.986732264
H -0.6462683377 -2.2493444639 0.0100907063
H -2.1512191273 0.5044378934 0.1238003403
H 0.2750592424 1.0062991036 2.6212963694
