10
0
N 1.8392686853 0.6580596436 0.2077330773
C 2.3116643092 1.125843782 1.2133880363
C -1.0788289791 -1.2418089682 -0.070383214
C -1.5599427986 -0.0152749522 -0.2045420932
O 2.8725814532 1.5993331944 2.1139245363
H 0.9129440912 0.2680190669 0.1113509317
H -1.0823664969 -1.7525745695 0.8859126669
H -0.6704182288 -1.7875374992 -0.9136051406
H -1.9769803339 0.5264016039 0.6369575538
H -1.5648627017 0.4924706983 -1.1625773544
