13
0
C 1.3428839427 -0.1290990956 0.5054110761
C 0.6871532603 0.4569711851 -0.7016586043
C 0.6187102923 -1.0101199787 -0.4539172988
C -0.6241859418 -0.2137709464 -0.6109135088
N -1.5202192828 0.0379773994 0.5153149957
C -1.6973729745 1.13087262 1.1994422509
H 2.4260468566 -0.183089664 0.4842618091
H 0.9212722192 0.0589175802 1.4886946682
H 1.1196803682 0.9971146374 -1.5266665155
H 0.9807826457 -1.8314740684 -1.049726517
H -1.1673307037 -0.3550559847 -1.5412942292
H -2.0639122565 -0.7732579741 0.7832944583
H -1.0097344255 1.8796082898 0.7566034154
