15
0
C 2.3917746836 0.0283458692 0.3126604357
C 1.598478219 1.2292073664 0.5274682214
C -0.9772161411 -0.7648629638 0.1520566411
C -2.2906214039 -0.3918285799 -0.4614581662
C -1.1386002818 0.5643567149 -0.533032594
H 3.2731976645 0.4330225281 0.8673360236
H 2.1151483056 -0.9082245146 0.8079034064
H 2.7349645701 -0.1291833998 -0.7102281102
H 1.1134782341 1.1151079189 1.5164057411
H -0.3830899066 -1.5204084773 -0.3455038247
H -0.9079474778 -0.7809846235 1.2323955176
H -3.1087039916 -0.1490672762 0.2035955713
H -2.588621014 -0.896265391 -1.3710538889
H -1.1781150023 1.4576986228 0.0757415334
H -0.6499694578 0.704987206 -1.4876615078
