16
0
N 2.2583695765 -0.3298311002 2.6319365891
C 1.7929932932 0.1625022171 1.4919836538
O 1.0996754508 -0.7980675322 0.8891211215
C 0.4804409187 -0.4258225975 -0.343985148
C -0.9465927803 0.0274992615 -0.1050972788
C -1.7025225356 0.2666543761 -1.3951842248
O -1.0558210283 1.3033683864 -2.1118213605
H 2.0794829476 -1.280760726 2.9328597611
H 2.8218561701 0.2580135596 3.2154205554
H 1.0697955865 0.3603300666 -0.8140387725
H 0.5047356699 -1.3202222107 -0.9714435447
H -1.4740257849 -0.7343718053 0.475979697
H -0.9334737738 0.9458695653 0.4878201991
H -1.7257944901 -0.6579050272 -1.9894714887
H -2.7397143453 0.5394109975 -1.164888536
H -1.5250668748 1.455554569 -2.9325822232
