16
0
C 0.0613747824 -1.3505694712 0.1720473547
C -0.8015082708 -0.5818371202 1.1709673715
C -0.8907964212 0.877577094 0.816961765
C 0.1230191384 1.4873048816 0.2043284098
C 1.3259825825 0.7371162332 -0.1669222114
C 1.3149039859 -0.5950239984 -0.1745877036
H -0.5052637736 -1.5186987188 -0.7544064736
H 0.3026332482 -2.3401361419 0.5647065812
H -0.3666395791 -0.6653092982 2.1765657856
H -1.7961752253 -1.0277247531 1.2297663906
H -1.7689887308 1.4370271997 1.1199827297
H -0.718698104 0.4973274268 -2.4434553414
H 0.079012287 2.5480006548 -0.0150049955
H 2.2146161992 1.2846105189 -0.4591491072
H 2.1915213878 -1.1518015171 -0.4868865923
H -0.8688945068 0.3407030101 -3.1573619629
