12
0
O 0.5980907434 -0.5546798661 0.773312909
C 0.781609645 -0.1239248191 -0.4996859581
C 1.8784966022 -0.3249826578 -1.213857538
C -0.7697444421 -0.3664349976 1.1118695526
C -1.1871414686 0.7436786625 0.163683691
O -0.3157331054 0.5402129562 -0.9410632904
H 1.9561075768 0.0965767589 -2.2030994392
H 2.6870026154 -0.9067631019 -0.8017553167
H -0.8355154159 -0.0969075144 2.164413368
H -1.3249203954 -1.2919270332 0.9325949317
H -1.0166561829 1.736566894 0.5902115306
H -2.2157351723 0.6645607187 -0.1838204405
