15
0
C 1.6620139677 -1.3538670303 -0.5636136102
C 0.5485868609 -0.3877824489 -0.3408222231
C 0.311331709 0.7611059998 -0.9695651719
C -0.9214485376 1.4659307047 -0.4599972508
C -1.3776578081 0.5717172825 0.6755604451
C -0.4777926909 -0.5796372031 0.7308109779
O -0.4401435901 0.4432657198 1.7321732243
H 1.2753238526 -2.3543221218 -0.7758546748
H 2.2931460752 -1.0501307583 -1.398945015
H 2.2873023344 -1.4345879651 0.3293158815
H -1.6945889109 1.5449807935 -1.2301918237
H -0.707097578 2.4796441373 -0.1102770016
H -2.4201443332 0.5283169007 0.972083822
H 0.9453183367 1.180568569 -1.7421202769
H -0.7663026877 -1.5637675798 1.0850656971
