11
0
C -1.8110791649 -0.4675753361 0.1274093938
N -0.5123292961 0.081725344 -0.1860576343
C 2.1826071099 2.1362318206 0.0796721245
N 2.0128331068 0.9862953919 -0.0376362824
C 1.7006902082 -0.3573845206 -0.1780445544
N 0.4997591594 -0.77525291 -0.2249714431
H -1.9895008658 -1.3345809037 -0.5065197801
H -1.901822416 -0.7712439252 1.1756104079
H -2.5680234752 0.2853864243 -0.0902962522
H -0.3126342923 1.0178897693 0.1451552135
H 2.5237119259 -1.0503351546 -0.2536761931
