17
0
C -1.8189984716 -0.5153009629 0.1130189159
C -1.6926115995 0.7571057959 -0.6715563346
C -0.4730007033 0.1359373408 -0.0621599468
C 0.6347370401 -0.4835758577 -0.9141414132
C 1.8639223003 -0.5565022555 0.0160296418
C 1.5005868078 0.3662167903 1.1510752309
C 0.2271061712 0.7335294271 1.1036812089
H -2.0057591332 -1.4325310822 -0.4318473334
H -2.2846860488 -0.4703813764 1.0896418981
H -1.7949749221 0.7000861459 -1.7486918342
H -2.0782576295 1.6694302224 -0.2335295882
H 0.3541379446 -1.4564269647 -1.3201368763
H 0.8514704598 0.1745680166 -1.7590942647
H 2.0328470017 -1.5714088876 0.3916448383
H 2.7837623205 -0.2557232491 -0.4904742701
H 2.2026062004 0.6512880455 1.9247631964
H -0.2758067382 1.3633918516 1.8283849312
