15
0
C -2.573939738 0.9564367818 0.6658157091
O -2.1070860757 -0.0514838933 1.1185066506
C -0.4446762216 -0.8455553555 -1.0854476876
O -0.7115133606 0.1415543317 -1.723033156
C 0.7401042631 -0.9813088594 -0.18044499
C 1.5429030453 0.2897613164 -0.0285929289
O 2.6350733252 0.000339565 0.8251526624
H -1.0851833687 -1.7463701099 -1.1564022675
H -2.3369176326 1.2918905435 -0.35942045
H -3.2586626468 1.5886437368 1.2608683334
H 0.3782284146 -1.3300596118 0.7911792452
H 1.3720194318 -1.7864541077 -0.5734517091
H 1.8854687349 0.6345487365 -1.0104604413
H 0.9063263887 1.0764366841 0.3934461609
H 3.1626084404 0.7927142417 0.9298318687
