14
0
O 2.0665782131 1.7829000884 -0.5633037225
C 1.6625703249 0.6799045475 -0.8242149241
C 0.4689751002 0.075412626 -0.2003188989
C -0.7719245211 -0.5207192252 -0.9000772162
N -1.0636767606 -0.6498330595 0.5602067877
C -0.5276010716 0.7353756983 0.768893562
C 0.4483910684 -1.2602493178 0.6739430215
H 2.1943741329 0.0285780736 -1.5464297285
H -1.4480148894 0.1630284646 -1.4204849505
H -0.6396050659 -1.4823558926 -1.3869191062
H -1.1866107299 1.5317542076 0.4029445844
H -0.1835966951 0.9153509183 1.7842748073
H 0.7523421293 -0.9705322754 1.6971191108
H -1.9212182352 -1.0280968536 0.9498196731
