11
0
C -1.9660982473 0.7901069817 -0.3248050651
C -0.6724932119 0.5521568733 -0.441563846
O 0.2032866457 0.827268067 0.564083339
C 1.38859318 0.1346289247 0.5799141839
C 1.6076167886 -1.0197975882 -0.0004096095
N 1.8176870404 -2.1460154133 -0.4321433055
H 2.1702606918 -2.1706230879 -1.3880510962
H -2.3883903733 1.1714925172 0.5953398507
H -2.6192786904 0.6140055667 -1.1667334043
H -0.2177485391 0.1603067054 -1.3485179742
H 2.1739477155 0.6244184534 1.1358379272
