14
0
O 2.5070432142 0.6637187526 0.31004586
C 1.4246636098 -0.1707227992 -0.0528017539
C 0.1764728951 0.4000304365 0.5914138221
C -2.3387052075 0.0482213152 -1.6231695044
O -1.3390755347 -0.5356479012 -1.0624082366
C -1.0575172817 -0.4404900154 0.3595596243
H 3.2859429561 0.3930346328 -0.1771015355
H 1.5863500957 -1.1987678909 0.3008230101
H 1.300568853 -0.2079494364 -1.1406245214
H 0.3395758028 0.4761381497 1.6701710298
H -2.9044796479 0.5837398681 -0.80837791
H 0.0087679594 1.4150124294 0.2215553466
H -1.9374557173 -0.0096495806 0.8446132874
H -0.9179299969 -1.4680169606 0.7006994813
