12
0
O 1.7357966854 -1.9372898194 -2.5442171531
C 1.4681550699 -0.9076023652 -2.1859674191
N 0.2045248502 1.5088289689 0.01512138
C 0.2114883797 2.7617485668 0.1449587406
C -1.0351465777 -2.1953762427 1.1599254888
N -0.3862979825 -1.5676842191 0.282251627
H 0.6534067411 1.2109004759 -0.8509586316
H 0.6458043269 3.4529593444 -0.5832937946
H -0.2386656215 3.2062111565 1.0329359824
H -1.4904769126 -1.7289102726 2.0403869315
H -1.1671142107 -3.2744193628 1.0601964655
H -0.3364827482 -0.5671722304 0.4900133827
