13
0
O 2.23693939 0.1945714547 0.4036555091
C 0.96728531 0.3745028389 -0.172807664
C 0.2062414918 -0.9480431354 -0.3111567047
C -1.2477560237 -0.4918281674 -0.2458980734
N -1.1114799248 0.772456861 0.5048601612
C 0.0709467121 1.3032485431 0.621466654
H 2.4099858348 0.9796176345 0.9308838005
H 1.0635593511 0.8538751621 -1.1633282447
H 0.4526716154 -1.5794824499 0.5442928781
H 0.4413811256 -1.4938029243 -1.2234022068
H -1.9110217594 -1.1798720064 0.2793648164
H -1.9263712292 1.213110487 0.9037465153
H -1.6709168935 -0.293777298 -1.234830441
