13
0
C 2.0480330988 -0.0864990525 0.0029765359
C 0.5846025716 0.2098872478 0.0360301229
C -0.1111068851 1.3503733421 0.2447938035
C -1.5518392799 0.9098432415 0.1411705655
C -1.5488611621 -0.5485819081 -0.1385317452
N -0.3112606329 -0.9054059364 -0.1899386188
H 2.3485300413 -0.8038588946 0.7737250591
H 2.3778421176 -0.4771910279 -0.9653918153
H 2.5793130353 0.8448714929 0.1861961921
H -2.0952364687 1.446589562 -0.6460386433
H -2.1139740631 1.1179139937 1.0599936957
H -2.3543018276 -1.2559509774 -0.2874453655
H -0.0189075452 -1.858033083 -0.3694487866
