13
0
C -2.5381006354 -1.7231460133 0.4828870619
N -1.3916753641 -1.4194974416 0.0587055173
C 1.6436214718 1.3628599807 -0.9983725509
C 0.8696063621 1.8524764432 -0.035670799
O 0.7776953336 0.7283583907 0.7606797007
C 1.6282667595 0.0659549745 -0.2369159308
H -3.0698431733 -2.5599722999 0.027362614
H -3.0549993246 -1.2008266778 1.2948581723
H -0.9999853829 -0.6236303236 0.5644695403
H 0.3679955552 2.7705053881 0.2382990492
H 2.08216738 1.7196803599 -1.9127320702
H 1.0947417416 -0.7729089894 -0.6848146549
H 2.5619972765 -0.2564467915 0.2242843501
