13
0
C -0.2569820686 0.2346991284 1.4683045357
O -0.0263702259 -1.0223589069 1.2289668881
C 0.0295545721 -1.3253176097 -0.1725403499
C -1.1036468053 -0.7235754804 -0.9721960348
O -1.736597437 0.2884296199 -0.2259229837
C -0.4171515924 0.8506890628 0.0758852428
C 0.2553456221 -0.0846074628 -0.9433433262
H 2.5004123313 1.9039982726 1.6276164388
H 1.8977603607 1.6261121552 1.9712470904
H 0.4572779341 -2.288016225 -0.404399153
H -1.6823160363 -1.2525412516 -1.7164368757
H -0.3834708468 1.9299238069 -0.0228472992
H 1.017452192 0.1123028905 -1.6810261733
