17
0
C 1.1915156407 -0.4833547483 1.5008152446
C 1.5180990966 0.7629660236 0.6603428883
C 1.6127253987 -0.7036479281 0.1140243643
C 0.5998699879 -1.0781330727 -0.8909267668
C -0.5039611817 -0.3622617854 -1.0627440527
C -0.7141214771 0.9403853095 -0.342172534
C 0.4618469789 1.625386473 0.2502528707
H 1.8925924414 -0.6715860335 2.3025951632
H 0.151926528 -0.6526900291 1.7490379682
H 2.464067889 1.216132065 0.9327915349
H 2.6241691655 -1.0572237229 -0.0449850239
H 0.7850636842 -1.9690694851 -1.480096147
H -1.2448403637 -0.6608263335 -1.7961102286
H -4.254811331 0.0770592722 -1.0096656273
H -1.2872129254 1.6367747735 -0.9597833457
H -1.3595897834 0.805331735 0.545290456
H -3.9950837485 0.7135604866 -0.7232787643
