15
0
O 1.964994806 -1.5915087658 -0.4864884672
C 1.172029256 -1.2338678322 0.3422899132
C 0.2290351672 2.2931213866 0.0693231378
C -0.3621165311 1.2169277013 -0.4258346344
C -0.9442797704 0.1114795376 0.4007135494
C -0.3166011741 -1.2521848057 0.0886866149
O -0.585484543 -1.6440893823 -1.224186769
H 0.2623208031 -1.8852577544 -1.6215370146
H 1.4976572639 -0.8831456941 1.3396838609
H 0.320873321 2.4512342631 1.1395330049
H 0.6397453836 3.0599374137 -0.5757787322
H -0.4362872651 1.0902231435 -1.5020632249
H -0.8262520134 0.3283510031 1.4664990006
H -2.0157496754 0.0184134442 0.204555606
H -0.7322420283 -1.9873806585 0.7977031547
