12
0
N 2.1539228002 -0.0492001521 -0.3209855179
C 0.8466739972 0.1549173951 0.009228697
N -0.0488209601 -0.7725715617 -0.3979319957
C -1.3724971157 -0.6022065531 -0.0943400956
C -1.734755605 0.4799749131 0.6191774298
C -0.7707803217 1.4436542185 1.1252229963
N 0.5217663741 1.1952386677 0.7353580828
H 2.7400912987 0.7352119209 -0.0873189744
H 2.3850389387 -0.5349759239 -1.1692870527
H -2.0388495584 -1.3764413355 -0.4557403868
H -2.783369892 0.6217311354 0.8507944117
H 0.2562760438 -1.6028747244 -0.8766505947
