19
0
C 2.2177798813 1.7080971085 0.0914773697
C 1.2565620017 0.5743284983 0.4230793206
C -0.630374647 -1.7306340639 -0.3710603375
C -1.7427969192 -2.6856681683 -0.4265182429
C -1.0545562733 -0.4142018621 0.1049936623
C -0.1292002966 0.7613601773 -0.1765001825
O -0.794272633 1.9045637276 0.3451754072
H 1.8889704519 2.6613960815 0.5149665675
H 2.3213418819 1.8358545459 -0.9895704477
H 3.2117937565 1.5114061666 0.4952741423
H 1.1501575048 0.4787266212 1.509213876
H 1.649459344 -0.3755387961 0.0534405219
H -1.9984464841 -2.6099001522 -1.4990850816
H -1.4389471418 -3.7227858906 -0.2822996985
H -2.6527245978 -2.4460072118 0.1427487341
H -1.0569233368 -0.6063754927 1.1983511935
H -2.097531631 -0.1472036512 -0.1268901061
H -0.0308256118 0.8620866385 -1.2678674745
H -0.2805332498 2.6842857235 0.1290707762
