12
0
O -0.171396888 0.2462166853 -2.0579359283
C -0.1126902369 0.0834001822 -0.7001485376
C -1.4708313237 -0.2986377301 -0.1765894573
C -1.5122121451 -0.4984989361 1.2666307745
N -1.5658267698 -0.6598103783 2.3999830367
C 0.9582770876 0.2369004485 0.0268648217
C 2.0215739216 0.3894038976 0.7596874887
H 0.6982743885 0.4921583573 -2.3829091255
H 2.2722052625 1.3497481493 1.1990633591
H -2.1887494724 0.4805264575 -0.4461820514
H -1.7988461042 -1.216909582 -0.6708911262
H 2.6892702799 -0.4404175511 0.9684127455
