16
0
C -2.6577526094 0.4745193866 0.1852267357
N -1.8883668529 -0.4036481931 0.8097020216
C -1.8430926904 -0.8334178559 2.0601129957
C 1.0741598877 0.4115290901 -0.0931430893
O 0.6692750544 -0.6284027873 -0.5456781513
O 2.2789012317 0.9110876655 -0.2973575797
C 3.1498047719 0.1315540181 -1.1253111163
H -2.491849452 0.6286102195 -0.8670432139
H 0.4835713524 1.0768764146 0.5495941685
H -3.4589057832 0.9580483628 0.7215058831
H -1.1558233271 -0.7944953614 0.2164288227
H -1.1039328742 -1.5745433008 2.3100010789
H -2.5651350081 -0.4716114093 2.7750000469
H 2.7247334189 0.0230426008 -2.1226946976
H 3.3014916892 -0.8555462147 -0.6897900169
H 4.0857841909 0.6808903644 -1.1651148882
