14
0
C -1.3740773712 0.9416178422 0.4049576599
C -0.3419541214 0.186573792 -0.4308720059
C 1.1204351552 0.6453243484 -0.2895469659
C 1.9960585582 -0.5324039267 -0.0265830465
C 1.0578298883 -1.6122768292 0.1923182645
C -0.2170145184 -1.2512640839 -0.064138604
H -2.3762835889 0.5273264361 0.2777899864
H -1.4071469618 1.9927340398 0.1142259162
H -0.639126562 0.2465862552 -1.4855290726
H 1.2541952713 1.2983738245 0.5853375283
H 1.493756228 1.2351647398 -1.1308281941
H -1.120620817 0.893486659 1.4666434353
H 1.3576476301 -2.61379703 0.4779707865
H -1.0799937904 -1.9118060674 -0.021061688
