14
0
C 2.6516789048 -0.0149265942 0.659270968
N 1.7838288362 0.8284859043 -0.1312387503
C 0.6013450515 0.4538967726 -0.3239542437
O -0.05440872 -0.6829388123 0.1121721823
C -1.2131599974 -0.2156833921 -0.6610644954
C -2.4648099517 -0.0577607068 0.1718731093
C -0.5262117182 1.0491816952 -1.094686973
H 3.6268336081 -0.0579048156 0.1736663733
H 2.7978748417 0.4663663818 1.6297977708
H 2.2667540676 -1.0247359627 0.8198567785
H -1.3767159332 -0.8720601018 -1.5245673693
H -2.7547358183 -1.0209095737 0.591897277
H -3.2733726198 0.3179033919 -0.455044932
H -2.2999265511 0.6448678136 0.9889543044
