14
0
C 2.1781260417 0.8611523537 0.5541815941
C 0.7997354607 0.5720708328 0.0731232411
O 0.2749005176 -0.3397295501 0.8254114565
C -1.0811397901 -0.7711798896 0.5260851579
C -1.4036487675 -0.8079996537 -0.9514911772
O -1.5676940273 0.4618204022 -1.5179850108
H 2.2525378427 1.9371229654 0.7334416642
H 2.4817753933 0.3002226416 1.4427282499
H 2.8625132309 0.6591291602 -0.2751885877
H -0.6295142328 -1.3920201934 -1.4705266711
H -1.7530543129 -0.0930694708 1.0540706692
H -1.1508257081 -1.7657188516 0.9676877844
H -2.3478923736 -1.3469945128 -1.0664297546
H -0.7329612744 0.9234087659 -1.319698616
