12
0
O 0.50657583 0.8479681435 1.7376940038
C 0.6752723941 0.2745275023 0.6925365764
C 1.9843711738 -0.1923957777 0.2638303134
C 3.0473453224 -0.5889792248 -0.1185532224
C -0.4526100686 -0.0117761488 -0.2728919925
C -2.9052995385 0.3696501881 -0.2999306265
N -1.7253055157 0.47855632 0.2403602199
H 4.000773319 -0.9359889564 -0.444926442
H -0.2116486277 0.4595168838 -1.230052091
H -0.4954122806 -1.0907340982 -0.4448043249
H -2.7683580504 -0.1819926431 -1.2541054871
H -1.634530958 0.9547108113 1.130989073
