15
0
N 0.938831416 0.0047213466 -0.8190004568
C 1.5196992881 -0.4925452229 0.3120075972
O 2.4229438757 -1.2885067102 0.3706675712
C 0.7776060781 0.1618556303 1.4767467168
N -0.3103790592 0.948339993 0.9002583104
C -1.3200769377 0.1748208577 0.17623413
C -0.1985478821 0.8188302276 -0.5428293131
H 1.1698134293 -0.3524175126 -1.7288554717
H -1.5554618155 -0.823823341 -2.609966457
H 0.4116724416 -0.6020915657 2.1633865203
H 1.4598039492 0.8114781818 2.0273083484
H -1.2902646484 -0.9091206671 0.248118312
H -2.3078356437 0.6195143921 0.1757512349
H -1.5189697968 -1.1442457856 -3.2819342605
H -0.3195966947 1.7071941762 -1.1522717822
