12
0
C -1.2768457502 0.8763614081 0.2803752395
C -0.4352342866 -0.3427251589 -0.0460181765
O 0.3770297267 -0.0721543967 -1.2052989745
C 0.5885204596 -0.7378892888 0.9604878547
C 1.8800215525 -0.717127611 0.4966832031
C 1.6144199047 -0.2997099897 -0.8278224565
H -0.6347980349 1.7295803122 0.5000474297
H -1.8915010593 0.6687780904 1.156621296
H -1.9344037813 1.1272214944 -0.5516736893
H -1.0714389778 -1.1905946523 -0.3228302011
H 0.2724530268 -1.0131154467 1.9638629982
H 2.3248742199 -0.1294177612 -1.634202523
