15
0
C 0.830271525 0.9752855513 0.3277446383
C 1.5549006454 -0.2696990355 -0.2348907942
C -0.3708495072 -1.8489566198 0.1806155768
O -1.3208999279 -1.3006027366 0.8626067995
C -1.6189889898 0.1150616498 0.5382807375
C -0.4853464098 0.5379584148 -0.3571203433
C 0.193248564 -0.8044866536 -0.7434363289
H 0.761867754 0.9849700437 1.4175045145
H 1.2273139643 1.9352113601 0.0004508967
H 2.2485063672 -0.042019902 -1.0428701266
H 2.0611032389 -0.9076034889 0.4899430478
H -1.6762999453 0.6402918426 1.4911566218
H -2.5967938323 0.1228496803 0.0560655928
H -0.8095033305 1.1746887565 -1.1774276384
H 0.1611298839 -1.1632158627 -1.7727341941
