15
0
N 3.225975464 -0.5847765854 -0.8746552824
C 0.0714296183 0.0835212943 -0.0718836811
C 0.620608741 1.3553931557 -0.4319304841
N 1.0958521383 2.3593672789 -0.7289957082
C -1.1755428478 -0.0361870731 0.339936249
C -2.4472159577 0.600210921 0.6528359134
C -2.2447153393 -0.9073234256 0.809144129
H 3.5132702349 -1.0063224277 -1.7479519664
H 3.9495165808 -0.775316213 -0.1942694899
H 0.7543763433 -0.7542095264 -0.1630155807
H 3.2024574169 0.4179854849 -1.0173875438
H -2.5091615267 1.201486865 1.5522025155
H -3.0613771662 0.9482188528 -0.1692889608
H -2.7268455441 -1.5602626192 0.0911294156
H -2.1761631558 -1.3101539823 1.8128344753
