10
0
N 1.8126977234 -0.1403451608 0.517776727
C 0.5769888541 -0.1255138475 -0.0069250021
O 0.2502413371 -0.5455810454 -1.094701864
C -0.4751967715 0.4980807702 0.9171383996
O -0.2160708346 0.9278028688 2.0045642649
H 2.5754326828 -0.5293108637 -0.0060212144
H 1.9625330543 0.2397760712 1.4362785287
H -2.1865214748 -0.4606335361 -2.0901167165
H -1.4894070544 0.510842541 0.4806397737
H -2.9080125164 -0.3510817976 -2.2483398968
