12
0
N 2.6317974339 0.732576104 -0.7305129431
C 1.7229233963 -0.0703842435 -0.5592011046
C 0.71663258 -0.9024645652 -0.463519069
N -0.5130119308 -0.6020586812 0.1795406278
C -1.6428404711 -0.2776247421 -0.6814543389
C -0.9798482227 0.7685151136 0.129221327
H 0.8398729641 -1.9172656751 -0.8195143433
H 3.295141316 0.7818329943 0.0413598666
H -2.5942727033 -0.6903829351 -0.368742901
H -1.4646229947 -0.2578910733 -1.751619126
H -0.3685876383 1.4917118181 -0.402205785
H -1.4436017292 1.1335798854 1.0372517895
