9
0
C 1.2488394235 0.0820491075 0.5261451072
C 1.1966534058 -0.0035658867 -0.8819627153
C -0.167984603 -0.0465759789 -1.033238167
C -0.9141196151 0.0127397748 0.2483852085
O 0.129898691 0.0975235568 1.2212237717
H 2.1264220089 0.1405058403 1.1656375994
H -0.7091251474 -0.1131513586 -1.9733869093
H -1.5072914697 -0.8782416806 0.4694572048
H -1.548770694 0.8956916255 0.3591288999
