10
0
O 2.1518186913 0.430629099 0.1045559295
C 0.9836967516 -0.2595283557 0.4101025332
C -0.2308335979 0.495015485 -0.0866453839
O -0.1161071363 1.5459302984 -0.6801680491
C -1.5796689453 0.0045890261 0.278174432
O -2.0360479536 -0.7775933825 -0.6481442442
H 1.8808836317 1.2232571082 -0.3805761582
H 0.9730658897 -1.254190088 -0.0593560777
H 0.8834566635 -0.4117405152 1.4917220405
H -2.9291519947 -1.0610846755 -0.4135630223
