14
0
C -1.7029567119 -1.0611743988 0.2460880191
C -0.2976563839 -0.6074467555 0.166558641
C 0.3121937835 0.5176569239 -0.1884081636
N -0.2209478816 1.6947530315 -0.6923143001
C 1.7827049383 0.2724383244 -0.0657150462
C 1.9132358344 -1.1478048897 0.4290899044
O 0.6867680185 -1.5803108275 0.5243044382
H -2.3835075476 -0.2373672368 0.0272279375
H -1.9037963794 -1.8608965185 -0.470679776
H -1.9374233797 -1.4392425003 1.2434221199
H 0.2936501242 2.5237113396 -0.4449114458
H -1.2093597416 1.8172554645 -0.5420420672
H 2.3025742872 0.9379920138 0.6317097096
H 2.3156680395 0.3517270294 -1.0196209709
