17
0
C -0.9641702498 0.4770848775 -0.2414132141
C -0.5478482986 -0.9494444123 -0.597268932
O 0.0456409234 -1.0172604746 -1.8900939032
C 0.5467984523 -1.3029322981 0.4278273068
C 0.9234821602 0.0087851748 1.136763666
C 0.3272430475 1.1116582496 0.2714055828
O 0.144093705 2.2832738865 1.0426904065
H -1.6882596304 0.465490268 0.5794869564
H -0.1080481641 3.0010634645 0.4602179396
H -1.4171356895 1.0049028204 -1.0850288924
H -1.3921510963 -1.6453254407 -0.5468741886
H -0.6212738821 -0.7959080747 -2.5426921912
H 0.197376251 -2.0544864387 1.1359898495
H 1.388688547 -1.7355969861 -0.1127857753
H 1.9969211746 0.1288431096 1.2809061855
H 0.4515669904 0.0735178528 2.1206674594
H 0.9929377596 1.3171094216 -0.5761002558
