14
0
C 1.0709673008 -1.2145898941 -0.0642339125
C 0.2427574365 0.0336235476 -0.1982992185
C 0.868230034 1.3522445067 -0.3272802912
O 0.2993078885 0.6954417082 -1.4481729319
C -1.144520111 -0.0091046325 0.380801456
O -1.1585592646 -0.5843328369 1.5965934319
N -2.1999506693 0.4274517428 -0.1459734808
H 2.0352218573 -1.0726758951 -0.5513548489
H 1.2312333197 -1.455245076 0.9861581095
H 0.5646443113 -2.0586847802 -0.5352546509
H 0.3337836398 2.2341661044 0.0131868922
H 1.9524298098 1.4223240473 -0.3292244011
H -1.9967273264 0.8128048796 -1.0638639625
H -2.0766252263 -0.5719054218 1.8938338086
