11
0
N 3.1470440826 1.1759514572 1.2121097211
C 2.198352546 0.9232958308 0.615624156
C 1.0283365012 0.6121222256 -0.1467422723
C -0.0698718086 0.103333587 0.4026046303
C -1.3068649655 -0.2233828849 -0.3741275342
O -1.7395168701 -1.5461152926 -0.1401720765
H -1.0603905393 -2.1512388322 -0.445587372
H 1.0837306346 0.822278714 -1.2096839948
H -0.0990909108 -0.1092983674 1.4671522642
H -2.124913007 0.4200572942 -0.0415653478
H -1.1472356631 -0.0293807316 -1.4418121739
