16
0
C 1.6504500969 -0.2550800728 -0.3635919455
C 0.474928334 0.0830982334 -1.2712480881
C -0.6169758026 0.3572559293 1.9522003814
O -0.5324484055 -0.9528085946 1.9867830982
C -1.108629206 0.7807411084 0.6052244875
C -0.8980984332 -0.1037628699 -0.6264741061
H 2.5992764597 -0.1297948993 -0.8882938449
H 1.5931669782 -1.2877743329 -0.0122211633
H 1.6785307368 0.3896661144 0.5194819578
H 0.5237742928 -0.5359604957 -2.1718656881
H 0.5681070494 1.1202453705 -1.6118977052
H -0.2614160822 -1.2076408911 2.8741100765
H -2.1837038462 0.9035280907 0.8188897289
H -0.7569878054 1.8016007301 0.4304921737
H -1.0449654382 -1.1529868875 -0.3584134152
H -1.6657949283 0.1359094671 -1.3667029474
