14
0
C 1.818743219 -0.7381555513 0.6910969957
C 1.5706921691 0.4083702007 1.3152198373
O 0.985222577 1.505438105 0.8008365751
C -1.2101510384 0.1738476028 -1.5781257454
O -0.208744729 0.8385170154 -1.6818910771
C -1.8323141265 -0.241604934 -0.2867715324
H 2.2984954404 -1.5447637127 1.2261464339
H 1.5810451605 -0.8876195459 -0.3553562221
H -1.7201347212 -0.1759972184 -2.4963553737
H 1.8344913881 0.5578924601 2.3572154005
H 0.7036962657 1.3384908449 -0.1163273553
H -2.8906369021 0.0304049432 -0.2898519301
H -1.3245983894 0.2065858178 0.5648225243
H -1.7847833134 -1.3316800278 -0.2115785307
