14
0
C -2.3005688278 -0.2284089078 -0.3172119909
C -1.4433842478 0.6766898474 -1.0661872494
N -0.7541567892 1.3877726596 -1.6454346903
O 0.3188037827 -0.794647983 1.6244873465
C 1.2692002932 -1.4216286723 1.2371498091
C 1.9396111919 1.1938053867 -0.4104302487
O 2.5083880926 0.1373807915 -0.4709030802
H -1.7316390643 -0.6324017076 0.5217313387
H -3.1718279425 0.3084828771 0.0558755362
H -2.6311422182 -1.0418294667 -0.9621364095
H 1.1985468595 1.40875918 0.3788278894
H 2.2330378813 -1.4063215411 1.7721479764
H 1.2222143708 -2.0649563708 0.3427537607
H 2.131188618 1.9961519065 -1.141098988
