13
0
N 1.8084658793 0.4426174432 -0.1039042569
C 1.4595691326 -0.7981237348 -0.2170881909
C 0.0834392268 -1.1601755561 0.1738763785
O 0.0273628221 -2.453972726 0.5485821375
C -1.0999088352 -0.5063192293 0.0590348836
C -1.3462486442 0.9009466792 -0.141830268
N -0.5120698325 1.8498575427 0.0639925795
H 2.7315500251 0.7038060378 -0.4165303133
H 1.1495768295 1.1954948077 0.1673919433
H 0.9067658675 -2.8126925441 0.3634814166
H -1.9883896074 -1.1256423661 0.1257113835
H -2.3674355153 1.1275410116 -0.464477978
H -0.9174513484 2.7532706338 -0.1565247152
