16
0
C -1.6390054598 -0.8006914164 -0.5896078218
C -0.6954324289 0.2264399142 0.0221930689
C -1.4097524783 1.4948198681 0.4710572923
C 3.0495715592 -0.1623372559 0.2359351183
C 2.4407111596 -1.2013887189 -0.2735792165
O 1.906376028 -2.1211741662 -0.7247967287
H -2.1447581972 -0.3914228823 -1.4676797132
H -2.4089870711 -1.0993746735 0.1259991666
H -1.1032785526 -1.6989872829 -0.9009500556
H 0.078289078 0.4852219231 -0.7082795335
H -0.7155754576 2.2171493985 0.9054066592
H -1.9112793778 1.979858415 -0.3700548941
H -2.1702365888 1.2706570883 1.2231312474
H 2.4654412414 0.6858811647 0.5566428486
H -0.1795081956 -0.2214617817 0.8779768796
H 4.1245467415 -0.1726745942 0.3258836826
