14
0
C -0.7200289225 -1.203471931 1.0461524672
C 0.0427494672 0.4752267461 -1.8791207865
C -0.0082656143 1.1515784603 -0.5220958697
N 0.8495862711 0.5983114862 0.481007905
C 0.6474860212 -0.5741457988 1.1637436802
O 1.5272579646 -1.0477050075 1.8472467873
O 0.6791774481 -0.5075344053 -2.1243625508
H -0.7401978148 -2.0862847962 1.6784223842
H -0.9225105897 -1.4983708358 0.014979789
H -1.5023213645 -0.5127647265 1.3676245075
H -0.5800503377 0.9668199193 -2.6567402049
H -1.0546835438 1.1453711161 -0.1979151402
H 0.2350112676 2.2080393771 -0.6726267494
H 1.8090887472 0.9037533961 0.4977817812
