11
0
C -1.7463099203 0.7145564579 -0.3613006655
C -0.8058510312 0.2931113351 0.7300455752
O -1.1303118524 -0.1627098165 1.7864357263
C 2.3399192785 -1.0476544228 -0.2983460653
C 1.3944352234 -0.2365484912 0.0839938625
N 0.5565721279 0.5679305617 0.4320621017
H -2.7718953873 0.5346506925 -0.0495794435
H -1.5277770697 0.15318214 -1.2719197213
H -1.5975362835 1.771711428 -0.5847461464
H 2.5350775385 -1.1977261724 -1.3502222163
H 2.923739376 -1.5776587122 0.4400669927
