13
0
N -2.1621240725 0.1565633273 0.1361960882
C -0.7259173562 0.2012895318 -0.1805414274
C -0.1076103132 1.3952656574 -0.3059268961
C 1.2864448326 0.9863250061 -0.2156819612
C 1.3571394875 -0.3464489606 0.0598599699
O 2.3898680081 -1.2142141661 0.204615571
N 0.0944858539 -0.8864590938 0.180382053
H -2.730191023 -0.4450855882 -0.4597009523
H -2.3588030272 -0.0676062868 1.113667142
H -2.4029405211 1.1416760588 -0.0328801726
H 2.1491812334 1.6355033249 -0.2970187332
H 3.1949128731 -0.7586313149 -0.0474881424
H -0.0394449754 -1.834236496 -0.1388315386
