17
0
C -1.4707798381 -0.3294720138 0.2134484736
C -1.0817482911 0.7433290477 -0.7613585602
C -0.0201819504 0.0039468857 0.0043588294
C 0.8525771262 -0.9388805432 -0.7557696883
C 0.6571967825 -2.2396730812 -0.9052347674
C 0.8615905032 1.9989093037 1.2554557215
C 0.6948388508 0.69268349 1.1196888352
H -1.852029223 -1.2618889901 -0.1810505362
H -1.9152232001 -0.0172048693 1.1493541638
H -1.1743098336 0.5180091781 -1.8158320543
H -1.2913978555 1.7716947464 -0.4988753787
H -0.1919756064 -2.7455807014 -0.4598046198
H 1.7294218521 -0.4786974497 -1.20634161
H 1.3434074332 -2.8469773871 -1.4825075912
H 0.4790389442 2.7045649824 0.5265882455
H 1.390188576 2.41064987 2.1063396162
H 1.1134577301 0.0232565319 1.8682869209
