16
0
N 2.6051851472 0.504272388 0.9452831093
C 1.9106976329 -0.2721924451 0.4626151174
C 0.9974172466 -1.2442158941 -0.1315088777
C -0.4453159389 -1.1082435708 0.3828908298
C -1.2778526829 0.0066620842 -0.2477004465
C -0.7549400452 1.4265397772 -0.0792789663
O 0.3169866377 1.6933101376 -0.9685000537
H 1.115209323 1.8596271236 -0.4635900341
H 1.0377054983 -1.1211045896 -1.2157729427
H 1.3872083421 -2.2366572849 0.1040695554
H -0.4218865649 -0.9876042495 1.4696267513
H -0.9455854062 -2.0600618931 0.1905853264
H -1.3958893596 -0.1792126512 -1.3200407879
H -2.2805957068 -0.0418322356 0.1877618632
H -0.4543435371 1.6034115057 0.959648736
H -1.5616185861 2.1300217973 -0.3064731801
