18
0
C -2.2911011181 0.5758264969 -0.1003486511
C -1.6325592435 1.1133924121 1.1632180162
C 1.140802888 -0.8482725415 -1.1678323195
C 1.1721701577 -1.5251283477 0.178774054
C 2.1749852917 -0.4801490379 -0.1505027142
O 2.0540342921 0.7286179109 0.5382789089
H -1.9837833637 -0.4523779977 -0.3045125344
H -3.3799173696 0.5810882871 -0.0176440293
H -2.0275205064 1.177765623 -0.9731361147
H -1.898143903 0.510316634 2.0341238029
H -1.9460616497 2.1391678518 1.3678839092
H 1.448282179 -1.4094183352 -2.0406424874
H 0.3479947429 -0.1311342685 -1.3379708036
H 0.4068812214 -1.2444422848 0.8903892524
H 1.4985952085 -2.5547442155 0.2373744561
H -0.5434881145 1.1113268319 1.080061012
H 3.1987613698 -0.7987744879 -0.328321316
H 2.2864089176 1.441866469 -0.0593834415
