11
0
N 1.2000184713 0.6831744453 0.4761134656
C 2.1773323903 0.3201851086 -0.2473600328
O -0.7377049317 -0.7068259545 -1.1157963907
C -1.034595303 -1.0397304375 0.2477184412
C -1.0193460519 0.3330375458 -0.2362404187
O -0.0323957015 1.2713936548 0.0290414108
H 1.1926729392 0.6715830463 1.4867483717
H 1.9182759199 0.4809171996 -1.3015504378
H -0.1908671035 -1.4265949163 0.8096000525
H -1.9808060333 -1.5480466111 0.4058521244
H -1.9392635956 0.8809869192 -0.4169685861
