19
0
C 2.3136080078 0.3359473244 -0.6695492663
C 1.0381710106 -0.4945118484 -0.6003468517
C 0.1442530831 -0.1557520061 0.5959536453
C -0.4909439966 1.2454424496 0.4837028938
C -1.8293765599 1.1853249531 -0.1373796508
C -2.1433324241 -0.2594831595 -0.1469051712
C -1.1056915046 -1.043010982 0.6726322226
H 2.9445714523 0.0199166788 -1.5019256767
H 2.8974960724 0.2322491854 0.2484459924
H 2.1019997607 1.3979518538 -0.8083242292
H 0.4732186785 -0.3748284012 -1.5317281486
H 1.3042808106 -1.5543508783 -0.5417706094
H 0.7464388506 -0.2425008556 1.5050270802
H 0.145640083 2.0615517939 0.1397600685
H -0.8448087256 1.5748796705 1.4836792664
H -1.4484241273 -1.1304984978 1.7073698222
H -3.1940610894 -0.4969322399 0.0258998273
H -1.9964751896 -0.4350652705 -1.2309888832
H -0.9340051925 -2.0551207698 0.3014646685
