13
0
O 1.5875284189 1.4406178671 -1.4282279234
C 1.6721718429 0.7189607546 -0.4771206369
C 0.7288157668 -0.4494226032 -0.2330927319
O 0.9560017352 -0.8941012202 1.0834698857
C -1.789837534 -0.9261765922 0.0010673188
C -1.642723585 0.443791167 0.5497267149
C -0.7082948474 -0.0387799231 -0.4922105894
H 2.4606232861 0.8395657544 0.2917573801
H 1.0038810221 -1.2246342814 -0.9628767424
H 0.6043972998 -1.7815013753 1.1834017142
H -2.3781612628 1.1983445158 0.2947985918
H -1.3626787955 0.4387012681 1.6012935947
H -0.8626313469 0.3514016683 -1.4957695764
