14
0
O -0.3229484897 1.7621871739 -0.6309028423
C -1.1817387601 1.0024633266 0.0266836602
C 2.540215882 0.4483323997 -0.7841283092
C 2.1798805063 -0.5166298976 0.0280220394
N 1.9233491468 -1.4376422408 0.7701617722
C -2.3737731998 0.8075153802 0.4616253974
C -1.3393650537 -0.2677606823 0.7743794041
H 0.5467021497 1.3286806658 -0.6350999424
H 2.4693200708 0.3048022117 -1.8532531914
H 3.0129366699 1.3359288904 -0.387569822
H -3.4027074789 1.0829056354 0.5894871694
H 0.979442243 -1.4765335744 1.145812076
H -1.3723793757 -1.2198218356 0.2374243353
H -0.9538893106 -0.3531164529 1.7956452535
