12
0
C 2.2319446676 0.9514031395 0.6087770478
O 1.3813696992 -0.6132256488 1.0929186419
C 0.9544954003 0.459433457 0.6044445571
C -0.4296223643 0.7909813837 0.1471270298
O -1.3106629328 -0.2807816801 0.183724427
C -1.1137492074 -1.2200960543 -0.8551219645
H -1.2035643465 -0.7392711089 -1.8370051993
H 2.5702842668 1.4072866611 1.5392666906
H -0.3471789782 1.2390176064 -0.8537587566
H -0.8156124232 1.5645969034 0.8172196325
H -0.1381552686 -1.7084971699 -0.7793159674
H -1.8966915128 -1.9684514889 -0.7516911387
