16
0
C -0.7053719036 1.4285710155 -0.9048145639
C -0.3774682278 0.1988190073 -0.0625868262
C -1.3218533234 -0.9591640827 -0.3661375536
C 1.0739596958 -0.1859319126 -0.2862940897
C 2.0629775871 -1.1904058214 1.6591428608
O 1.4387310594 -1.3197640988 0.5418925346
H -0.0509320208 2.2695646467 -0.6656944287
H -1.7348935188 1.7462188638 -0.7336382747
H -0.5993169991 1.2116412494 -1.9714452183
H -0.4793940532 0.4666410709 0.9960143165
H -2.3558839863 -0.673769895 -0.1648249152
H -1.0888207639 -1.8353028214 0.2392426057
H -1.2538230745 -1.2479506194 -1.4189006428
H 1.244306448 -0.5047801077 -1.3171053153
H 2.2686479792 -0.0895677713 1.7944169019
H 1.7513311019 0.6368612764 -0.0396503911
