14
0
N 1.4849489367 0.8007315282 1.7545569051
C 0.8416224585 0.2756779103 0.6520238199
O -0.2809502471 1.0006774824 0.4171518827
C 1.2770107933 -0.751992367 -0.0860478234
C -1.7889494763 -0.6944151513 -0.4483887712
C -1.0702531142 0.6195000863 -0.6816452175
O -2.3583502513 -1.2864570135 -1.3199522554
H 0.870829852 1.2390515828 2.4206075357
H 2.1712531693 0.1978048995 2.1728488834
H 2.1793298509 -1.2683804425 0.2063349287
H 0.7861350144 -1.0800631838 -0.9871176778
H -1.784188038 -1.0501952702 0.6021875609
H -0.4907922798 0.5726861085 -1.6082139393
H -1.8277376685 1.3978658306 -0.795309832
