7
0
O -0.8869666842 1.3558541183 -0.7002780494
C -0.3720204445 0.5120526963 0.1918392556
C 0.4268913289 -0.5085680077 -0.1548247477
N 0.8695709783 -1.2659522604 0.8202866672
N 1.3302509877 -2.0017576486 1.5203178228
H -0.6863014772 0.7688147686 1.2014375932
H -0.5789926889 1.0877763333 -1.5755195417
