14
0
C -1.3899133463 -1.2084076706 -0.2409349432
C -0.5062370308 -0.0329054944 -0.0379651147
N -0.9636671184 0.9752578665 0.6367242165
O -2.1026934283 1.0812471008 1.1591167011
C 0.8588199939 0.0421014252 -0.6044675989
C 1.9951136576 0.6054767336 0.1262466197
O 1.8462728077 -0.7926150911 -0.0105882095
H -2.290817431 -0.9193266486 -0.7889119919
H -0.8674277616 -1.9969093328 -0.7795282719
H -1.7278667969 -1.5920804578 0.7243226262
H -0.3303777676 1.7734943255 0.7471308408
H 0.9083321592 0.0444451589 -1.6926295351
H 2.8166635191 1.046904565 -0.4300761342
H 1.8613015436 0.9849785198 1.1359447949
