9
0
C -1.2374192936 0.2923773286 -0.0564316109
C 0.036203379 -0.3440318604 -0.4574091115
O 0.6110613146 -1.3010975508 0.4101782322
C 1.0703443508 0.0371649278 -1.3389079041
C 1.5769839809 -0.4008163284 -0.1194192383
H -1.4707660194 1.1178538183 -0.7232574871
H -1.1703084547 0.6415051964 0.9750666157
H -2.0314479368 -0.4554549842 -0.1053005814
H 2.2926136791 0.0204254526 0.5787250855
