14
0
O 1.4565333336 -0.6426919608 -0.4665670418
C 0.50556161 0.2938532613 -0.9737415504
C -0.9238006241 0.1627683913 -0.5089908543
C -1.0965353841 -0.3422278569 0.9183101318
O -0.6988962003 -1.6836838092 1.0762575821
C 1.6056781135 0.7286797705 -0.1183883933
H 0.2066763796 -1.7476257214 0.7531929313
H 0.621543295 0.4745393207 -2.0406423277
H -1.4485720883 -0.522665493 -1.1804205021
H -1.4048669391 1.141018057 -0.612806201
H -2.1541220567 -0.2984359221 1.184465102
H -0.5664166523 0.3126120701 1.6242352107
H 1.4236062862 0.9618457524 0.9259971207
H 2.466845927 1.2196241401 -0.5610672079
