13
0
C 0.7154530872 -1.1447105045 0.1596049491
C 1.123450801 -0.0527941071 -0.8052065166
C 0.5235559259 1.0963663087 -0.5074502253
C -0.4011214965 0.8808388834 0.6478731116
N -1.504983135 -0.0275065858 0.2480352852
C -0.3106373189 -0.5340715121 1.1216385721
H 1.5785673965 -1.4925848507 0.7345802086
H 0.3243333911 -2.034397728 -0.3458452324
H 1.8072537697 -0.1959235733 -1.6346049016
H 0.659557476 2.0434485112 -1.0148077915
H -0.698753826 1.712392172 1.2778419496
H -1.5710954102 -0.1917180532 -0.7494416327
H -2.384679661 0.0090130396 0.7358922241
