15
0
C 2.3714002878 0.3870180212 -0.1520492435
O 1.0612140028 0.5541404693 0.3271797213
C 0.308412855 -0.6320747131 0.2993628237
C -1.1021329634 -0.2978204162 0.7331913659
C -2.825171837 0.5403772137 -0.8754494076
N -1.7286799337 0.6530927723 -0.1838424359
H 2.3735697213 0.036235851 -1.1915702413
H 2.932575923 -0.3293062114 0.4611733267
H 2.863905006 1.3566749317 -0.1033884397
H 0.7388809346 -1.3824587881 0.9779383332
H 0.2999396214 -1.0572413185 -0.7145482082
H -1.7173521771 -1.197892658 0.7535906864
H -1.0769729319 0.1337297914 1.7374366392
H -3.2434467776 -0.459519837 -0.633015457
H -1.196812731 1.5092538915 -0.2839344631
