14
0
C -1.5847992597 -0.4436741963 0.6120060425
C -0.9605818809 0.3261300535 -0.5546644835
C -1.5160424162 1.6781335915 -0.6628037695
N -1.9769071214 2.7271673864 -0.7078856668
C 0.5611843608 0.4252009849 -0.6485333125
O 1.058841629 -0.4568433298 0.1474597632
C 2.4917759555 -0.5664712064 0.1775883179
H -1.3172692942 0.0155559508 1.5636093482
H -2.6709905568 -0.4476524267 0.5261783622
H -1.2297185012 -1.4728041678 0.6174169484
H -1.2065340135 -0.1714813329 -1.5053248638
H 2.7477447241 -1.5876895849 -0.0991781893
H 2.8117001436 -0.3657656217 1.1984571617
H 2.9156552308 0.1530678996 -0.5201796585
