12
0
C -1.5546565617 -0.6301597783 0.4666381007
C -0.1440229851 -0.4401183146 0.0755552489
C 0.5994439423 0.7251614005 -0.2335007501
N 0.4102990894 1.996232131 -0.2998139349
N 1.8271896555 0.1288294246 -0.5100083904
N 1.8706339082 -1.1796242683 -0.4025092229
O 0.6541111427 -1.5014355253 -0.0442268627
H -1.7904102315 -0.0468188971 1.3601978261
H -1.7516686908 -1.6802951604 0.6775924176
H -2.2306069862 -0.3048879676 -0.3286606076
H -0.5456794918 2.2309921394 -0.0648010313
H 2.6635172093 0.619097816 -0.7840837935
