10
0
C -1.1716013616 0.2236104257 0.0893626398
C 0.1485611753 -0.3835294567 -0.2814589985
C 1.318565399 0.4766073495 -0.5471391295
O 1.0675782333 -0.581017877 0.8476987958
H -1.7667351257 -0.4468999177 0.7135115095
H -1.7354094387 0.4265727214 -0.8233271676
H -1.0198664879 1.1769719176 0.6002742885
H 0.0511730459 -1.357561886 -0.7635926819
H 2.0543363898 -0.1436022024 -1.0797834963
H 0.9015311706 0.1159879257 1.4918702401
