13
0
C 1.2760534037 -0.580913825 0.3478864337
C 0.8411672942 0.8514237969 0.1646607131
C 0.3647687156 -0.2416574796 -0.7810063158
C -1.1074889434 -0.3972890183 -0.504218931
N -1.2909423698 0.5083089661 0.6485085121
C -0.2896242729 1.2527733214 1.0459082072
H 2.3053326331 -0.8131344597 0.1085905667
H 0.8754949257 -1.1221046138 1.1982669551
H 1.5896228071 1.5819242377 -0.1068156194
H 0.7213971373 -0.309500758 -1.7989769143
H -1.3951959805 -1.4164981261 -0.2341256847
H -2.178082099 0.5366171362 1.1252374186
H -1.7270822509 -0.0735661777 -1.3445683414
