13
0
C 0.4365609028 -1.0841358345 0.1406800414
C 1.2865102356 0.0537507599 -0.3405836905
C 1.1353005188 1.1028186829 0.4478712675
C 0.1587329785 1.3923991715 1.2766326886
N -1.0939547338 0.7013365374 1.0288549871
C -0.9134508932 -0.4734442525 0.5849573808
H 0.8267849484 -1.6463410427 0.9973683081
H 0.2665843752 -1.8105958887 -0.6561749803
H 1.6654939078 0.086728803 -1.3548921316
H -1.216014217 0.2102303516 -2.8443055075
H 0.1928134087 1.9648991228 2.1927488567
H -1.2111521525 0.5766978791 -2.1950178488
H -1.7847232794 -1.1241812899 0.5261976285
