10
0
O 1.7916410449 -0.5248899822 0.4826394053
C 1.1026110207 0.3457915492 0.1926704024
C 0.2519994211 1.3294767077 -0.2121879017
C -1.1554326172 0.730945912 -0.5633414088
N -0.9458309378 1.4288971338 0.6561023168
H 0.3967499211 -2.898031803 -0.3252565575
H 0.669240069 2.1972165517 -0.7044418662
H -0.2425521983 -3.157273595 -0.6062271987
H -1.202857338 -0.3632688078 -0.4241850951
H -0.8571423854 0.8678483335 1.5107029035
