14
0
C -1.476170963 -0.1122645572 1.0779534031
N -0.9795036816 0.3307542235 -0.2044119347
C -0.1230454992 -0.4934617375 -1.0582917137
C 0.9745603949 -1.1891114857 -0.2448979245
C 1.4099075087 -0.0575358784 0.3040337693
C 0.3503203229 0.7766388858 -0.4415682133
O 0.5286498542 2.0384355428 -0.9428342602
H -2.3811262502 -0.6989448853 0.9165192064
H -1.7395323807 0.761307415 1.6747849967
H -0.7586102792 -0.7211672803 1.6415266902
H -0.4276290723 -0.6918318286 -2.0761684604
H 1.2018285118 -2.2317459362 -0.067164818
H 2.1129539941 0.1707838449 1.094804123
H 1.3612535393 2.0587066771 -1.4205398637
