13
0
C 1.6043621152 0.3903451893 -0.6486842892
C 0.2705644331 0.1033090861 -0.0602286072
C -0.4648974913 -0.9705848193 0.7229925622
N -1.7380506257 -0.9069736919 -0.0437148486
C -1.1954880151 0.4661644545 -0.2244237202
C -0.5041879996 0.4805011794 1.1091872623
H 2.3983912127 0.1007787451 0.0423842724
H 1.7536080468 -0.1499292079 -1.5851787924
H 1.7139213887 1.457711306 -0.8506429779
H -0.0826516501 -1.8173041102 1.2769003562
H -1.6391278204 -1.4301020728 -0.9139367848
H -1.6583995204 1.2816627344 -0.7634839149
H -0.418976074 1.1001462072 1.983770482
