11
0
N -1.7391001182 -0.6356928462 0.1979773265
C -0.4256824398 -0.1849223661 0.0700063854
N 0.6043137773 -1.0546383375 0.0352871617
N 1.8044184723 -0.4502283133 -0.0445899761
C 1.5185082384 0.8351013089 -0.0463355691
C 0.1300186548 1.0727696667 0.0196500207
H -2.3944017239 0.1237032784 0.2866708717
H -2.028375238 -1.2550014848 -0.5444956064
H 0.554906029 -2.0534419378 0.1207787444
H 2.3173144041 1.5587310745 -0.1069600138
H -0.3902590559 2.0159669573 0.014576655
