14
0
C 2.2074366512 0.0112152651 0.2414520012
N 1.1030263677 0.4321372393 -0.5879905035
C -0.1849055099 0.1731216079 -0.3056906936
N -1.1444837544 0.624476029 -1.069292536
N -2.3144804611 0.109180446 -0.4059820079
C -2.0078169621 -0.6982658501 0.8377187374
C -0.6601154277 -0.6103670452 0.8299514593
H 2.2479914887 -1.0765628164 0.332424197
H 3.1345148961 0.3442028469 -0.2210018877
H 2.1538595675 0.444768329 1.243462111
H 1.2815633478 1.0125385266 -1.3868141893
H -2.8393048184 -0.4786730721 -1.051384412
H -2.9265017661 0.8816401975 -0.1489875136
H -0.0118446192 -1.0610497035 1.5669202375
