18
0
C -1.7944212808 -0.0015004986 0.3979473415
C -1.2206629153 0.4938413927 -0.9166652148
C -0.1873607822 1.6022704696 -0.8590074654
C 0.7790800285 0.8699014642 -1.4082199573
C 1.8013772614 -0.9567463012 1.9427507317
C -0.078500528 -0.3657057481 -1.5514127652
H -0.9963726178 -0.2186265198 1.1119653697
H -2.376566239 -0.9148377267 0.2531879542
H -2.4529262689 0.7449882883 0.8479386673
H -2.0270126631 0.6967337918 -1.6282550088
H 1.6359923403 -0.1906054034 1.1860286355
H -0.2374025711 2.6223825308 -0.4960403746
H 1.8100869098 1.0738343616 -1.6712789936
H 1.3766658758 -0.626378644 2.8897201294
H 1.3218513621 -1.8842616407 1.6322892784
H 2.8704073362 -1.1253666681 2.0647087663
H -0.2618417875 -0.7093397479 -2.572097925
H 0.2237825399 -1.2206244007 -0.9410431691
