11
0
C -1.3601662128 -0.2447999315 -0.3478926029
C -0.0425252916 0.2471395234 0.2292408592
O 0.4827477942 -0.7496684224 1.0989119177
C 1.1201127884 0.5640668108 -0.6095023157
C 2.1973212609 -0.2201116984 -0.2516955668
N 1.7257833544 -1.0527998619 0.6999022011
H -2.0686081289 -0.4603489934 0.4503306161
H -1.7833325577 0.5231203391 -0.9949545665
H -1.1952943738 -1.1491274253 -0.9324759902
H -0.2006343107 1.1584252158 0.8267526954
H 1.1367966777 1.4036894439 -1.2928432473
