16
0
O 1.5967493214 1.106415379 0.9183491045
C 1.9981227134 0.1248149715 0.3588269795
C -0.0778046859 -1.1991977285 -1.8241026989
C -0.7241088914 -0.2407573719 -1.1967167156
C -1.5803879843 0.1612071921 -0.0839503627
C -1.0865941245 1.1715891308 -1.1194212303
H 0.6029320974 -0.0468068426 2.9609676933
H 1.8593887793 -0.8867107777 0.7827511644
H 2.5335227111 0.1798992918 -0.6057306664
H -0.1079268692 -2.223148459 -1.468586667
H 0.4904968215 -0.9965492806 -2.7251020138
H 0.4017009881 -0.5974447632 3.4236114289
H -2.6258218114 -0.1234659987 -0.1077065055
H -1.1437625593 0.2170132552 0.9068589498
H -1.8043627056 1.5585016847 -1.8333157684
H -0.3310908008 1.8792603174 -0.7974496921
