14
0
C 1.9756683901 0.1518506484 -0.163026944
C 0.5738188254 -0.2242898241 0.2887174991
C -0.5204691885 0.8236725112 0.0343198315
C -1.7488714915 -0.0394740086 -0.1440879232
O -1.2045790283 -1.3508026828 -0.5422894863
C 0.0601357099 -1.506513394 -0.3287581191
H 1.9923525588 0.3570272661 -1.2356890202
H 2.3312691847 1.0435641169 0.356422817
H 0.6045963621 -0.4798153944 1.3599813267
H -0.2996714932 1.3832047123 -0.8775285891
H -0.6302481751 1.5363443911 0.8506149866
H -2.4331579711 0.2685387988 -0.9316454176
H -2.3085085771 -0.2014651229 0.7784296902
H 2.6723468939 -0.6634600179 0.0310563483
