12
0
C -1.9378348351 0.0227612702 0.1221607234
C -0.6121324931 0.705211927 0.1436041437
C 0.4806819974 0.1342876409 -0.2932052543
O -0.6476373807 1.9630171545 0.6933622134
N 1.4846349745 -0.3504925501 -0.8082656496
C 2.3651793739 -1.2324835479 -0.1563734476
O 2.0981100786 -2.3622844141 0.1232332859
H -1.8560367245 -0.9735344143 -0.3087391266
H -2.3287530983 -0.0635279301 1.1379151323
H -2.6437824896 0.6105781362 -0.4679861264
H 0.198172472 2.4021887059 0.5811503449
H 3.365427125 -0.7899649781 -0.0176352393
