13
0
C 1.8701544253 -0.2503336718 0.03918901
C 0.8528714817 0.4062702117 -0.8500906324
O 1.1469687512 1.2086532143 -1.6989832889
N -0.9154634531 -0.5003324506 0.6351999952
C -0.6078032426 -0.0010028188 -0.6836148756
C -1.9015115962 -0.0012930621 1.2351574165
H 1.7586313726 -1.3357506104 0.0040432486
H 2.8700954489 0.0460600063 -0.2688800001
H 1.6908818756 0.0393667632 1.0763110535
H -0.7639216872 -0.8180168256 -1.3982134424
H -1.2333424897 0.8425989257 -1.0006373036
H -2.5300372878 0.7881956082 0.8046370529
H -2.1565195986 -0.35997229 2.2304027663
