13
0
C -2.1690474754 0.4340883174 0.2126602558
O -0.7597744854 0.2139040783 0.3115776108
C -0.2031651463 -0.4005414334 -0.7233363376
O -0.7871625005 -0.7707940996 -1.7039119817
C 1.2935941566 -0.5754136979 -0.585122862
C 2.4750023275 0.7408250664 0.9062638534
O 1.7668886137 -0.3291665162 0.7391795385
H -2.6945266051 -0.5153284065 0.1147228392
H -2.4533840602 0.9347151367 1.1337941766
H -2.3951832275 1.0604347996 -0.6496208035
H 1.7907968102 0.1144576305 -1.2700554023
H 1.5410082244 -1.60413131 -0.8427219281
H 2.7028833679 0.7102584348 1.995057041
