14
0
C -1.6776960504 -0.7547737419 -0.3213949869
C -0.1397639608 2.1366314282 -0.609469136
C 0.9566010159 1.5973540843 -0.2050852984
C 1.5683641613 0.2335376105 0.0053142508
O 0.738857153 -0.8252609035 -0.3439930114
C -0.4131203161 -1.003148014 0.4734125736
H -1.7134727956 -1.4127095441 -1.1904092096
H -1.7329562575 0.2790112374 -0.672123605
H -2.5569177375 -0.9462436007 0.297033548
H 1.5487178168 2.496464178 0.0428615337
H 1.8907240079 0.162359188 1.0536059331
H 2.4594942042 0.1543940282 -0.6197904611
H -0.3656458198 -0.3379492553 1.3427563534
H -0.3885914215 -2.0318186953 0.8441845158
