10
0
C 0.677998824 0.4021042717 -0.3740625571
C 1.0836203501 -0.8367828942 0.384866876
N -0.023537219 -1.4739288616 0.3449102357
C -0.6557285836 -0.3637479265 -0.4453842771
C -1.1035564076 0.7997042441 0.4037699043
N 0.0026860957 1.4349008563 0.4826573459
H 1.2548272618 0.783049459 -1.2113904272
H 1.995231931 -1.1566199531 0.8817903183
H -1.1890786482 -0.6637265006 -1.342696072
H -2.042055604 1.073780305 0.8779116534
