15
0
O 0.2122375709 2.2362101919 1.7698420972
C 0.7809835394 1.6547562242 0.9446221011
C -1.7556412357 0.2869314897 -0.7395823649
C -1.3597574875 -0.6398683849 0.1188091086
C 0.0466120301 -1.1154711046 0.3510647877
C 1.14746063 -0.405215094 -0.4275734604
C 1.4358727212 1.0115147139 0.0120599823
H -1.0598292009 0.8350934408 -1.3647998336
H -2.8033652955 0.5419021733 -0.8384093684
H -2.1113934424 -1.1390213286 0.7255733515
H 0.0819392976 -2.182280987 0.1059080929
H 0.2631762674 -1.0641175476 1.4247448471
H 0.8989144189 -0.4106070892 -1.4940404901
H 2.0682814581 -0.9863035633 -0.3300650083
H 2.2494027286 1.5654278654 -0.4396168428
