18
0
C -1.0973549069 -1.9553052971 0.5275224468
C -1.4063265025 -0.5009800865 0.2033939394
C -0.2028104355 0.3797938191 0.1171498811
C -0.2309908731 1.7833480339 -0.3283869355
O 0.904775452 -0.0932467514 0.5545355682
C 2.0929206053 0.4950628284 0.5630559173
H -0.4327919977 -2.3908060068 -0.2202010465
H -0.609934736 -2.0505909172 1.4981873637
H -2.0175544063 -2.5398860639 0.5506657968
H -2.0973723864 -0.0945760861 0.9552222643
H -1.9468056244 -0.4378229668 -0.747470852
H 1.0294319814 -0.4283373949 -2.1679261652
H -1.215399829 2.063759673 -0.6978606636
H 0.5163701706 1.9482129219 -1.1174842685
H 0.046230544 2.4611579723 0.4936880813
H 2.8433698728 -0.081912491 1.07512871
H 1.6775861921 -0.2060379926 -1.8556188184
H 2.1513808797 1.5646988057 0.4366727806
