12
0
O -1.7341809725 1.0884496061 1.1650164324
C -0.8825348127 0.5984091104 0.4804746483
C -1.0892277571 -0.1545681303 -0.8322653849
C 0.0645011494 -1.0317572617 -1.1011196504
C 1.0731868747 -0.6461121157 -0.0749433011
C 0.6136325706 0.5582728243 0.7504970972
H -2.0851019202 -0.5611884601 -1.0058707024
H -0.9298619641 0.5842986592 -1.6436147935
H 0.8205502125 0.5022557849 1.8178493733
H 2.089832157 -0.6150306254 -0.4695794956
H 1.0555091127 -1.5710985652 0.5301787985
H 1.0458943498 1.4921591735 0.378788978
