12
0
C -1.7026784727 0.1775620395 -0.0361580716
C 0.5132360687 0.1566863254 -1.2394682572
C -0.2614842848 0.6420048389 -0.0509512479
O 0.424725594 0.1600520084 1.1411355192
C 1.4909791639 -0.5293701263 0.7642290476
O 2.2935259226 -1.0718563175 1.4521899737
N 1.4933967671 -0.4990803948 -0.6699434497
H -1.756808755 -0.9110145029 -0.0809832623
H -2.196996509 0.5180633084 0.8727409597
H -2.2204116465 0.5865335516 -0.9028456659
H -0.2042488882 1.7346723268 -0.0272553755
H 2.2322610398 -0.9766390576 -1.1649061703
