17
0
C -2.023258671 -0.2547753177 -0.424596033
O -0.7402928895 -0.8063880362 -0.5716210445
C 0.3542398239 -0.0747399301 -0.0547813356
C 1.5606996569 -0.9772879606 -0.2711684599
C 0.178946901 0.2546866612 1.4275455645
C 1.5179844786 1.7408676148 -1.4835733503
C 0.5334423197 1.2264546494 -0.8334850404
H -2.0951615037 0.7478024556 -0.8644259539
H -2.7034174413 -0.9108127911 -0.9649322098
H -2.3399998888 -0.2060213118 0.6221798647
H 1.4330035395 -1.8966935834 0.3010461622
H 2.4763864772 -0.4819566533 0.0541997838
H 1.6493865537 -1.2344405178 -1.3259762024
H 1.0974737985 0.6914251688 1.8190958234
H -0.0397978523 -0.6610816991 1.9803815374
H -0.6265569754 0.9695054695 1.5989700764
H -0.2803753271 1.9641367816 -0.8751501827
