12
0
O 0.9412208719 1.4815098877 0.5432091201
C 1.6959565212 0.353484026 0.247970178
C 0.9996200874 -0.7458979199 -0.1528082194
O 1.1786523828 -1.909185713 -0.5028843633
N -0.4097500135 -0.2287289343 -0.1034203366
C -1.3946114441 -0.9746332438 -0.4152888784
C -0.3993101412 1.1548234901 0.3305306951
H 2.758737541 0.4651880625 0.3681319072
H -2.4107768606 -0.6046055176 -0.3806847114
H -1.133933324 -1.9860886598 -0.7101528509
H -0.8237612895 1.7935460426 -0.4471497007
H -0.9641433315 1.2581094794 1.2595791606
