17
0
C 2.3588788086 1.2912598222 -0.3874963234
C 1.0261212977 0.7193817898 -0.8038627165
C -1.6926588183 -2.2041254897 0.9551160635
C -1.0963061521 -1.4448013313 0.0488842489
C -1.3393500241 0.0247177527 -0.1219831406
C -0.1053448924 0.8650943208 0.1947117646
O 0.873655224 0.1810250135 -1.8721276852
H 2.2417589575 2.2698973777 0.0818015913
H 3.0208477991 1.3605326418 -1.2478303433
H 2.8082761444 0.62789665 0.3563365094
H -2.427385039 -1.7969743178 1.6430090846
H -1.4755148102 -3.2620215012 1.0409714567
H -0.3705561715 -1.887576697 -0.6280038723
H -2.1610136608 0.3365544645 0.5270792952
H -1.6391360014 0.2239443975 -1.1542219112
H -0.3635628805 1.9307924286 0.2098766153
H 0.2762012191 0.6398056778 1.195773363
