11
0
C -1.4017674129 0.6684364039 0.3587394942
O -0.766639047 -0.3683403142 0.7358849374
C 0.490712695 -0.7491222799 0.580364542
C 1.5188095086 0.0986137512 0.0693362729
O 2.6789435974 -0.2452113044 -0.0470524395
H -0.9087834593 1.4804932624 -0.1566083266
H -0.9468697132 -0.2852026946 -1.9634357139
H -2.4435769155 0.6897354353 0.6389608995
H -0.3049716062 -0.6709117728 -1.899838748
H 0.6853292113 -1.7279255338 0.9883506518
H 1.215744142 1.1288800468 -0.2131195699
