12
0
C -1.9585901879 0.8592477332 -0.2803149597
C -0.7392894567 0.0714354002 0.0529590479
N 0.2004708638 -0.0882993819 -0.7721949939
C 1.3289606099 -0.8890420165 -0.3426227105
C 2.5771921356 -0.1238477024 -0.4333053799
N 3.5611442837 0.4617375264 -0.4849521746
H -1.8849024803 1.2659435557 -1.2868282342
H -2.8471224211 0.227251954 -0.2062026849
H -2.0865331017 1.6746412057 0.4355683723
H -0.6944056068 -0.3700721473 1.0598525624
H 1.4235320231 -1.7510101624 -1.0078506713
H 1.2348663383 -1.2661539648 0.6851558264
