15
0
C 2.2264750574 0.1372732439 0.0900179355
N 0.8018409237 -0.0758728711 0.0894141642
C 0.1236177654 -1.3616870045 0.3081877097
C -1.3399858867 -1.1291299375 0.1964312822
C -1.4273952545 0.2268054725 -0.0689758729
N -2.6118500105 0.9980979365 -0.1996148696
C -0.1486103257 0.8141340642 -0.102173387
H 2.699354222 -0.3987509543 -0.7362269781
H 2.4414071909 1.199610229 -0.0161946744
H 2.6620971714 -0.215139485 1.0270018069
H 0.465949362 -2.0910901807 -0.4330457304
H 0.3971673811 -1.7451809732 1.2965096315
H -3.3998716549 0.3933696206 -0.0102907448
H -2.7254420082 1.3729662047 -1.1316679289
H 0.1056630664 1.857913635 -0.2601653441
