18
0
C 2.7398062102 -0.0117715089 1.3035410824
O 2.4462345264 1.2632132208 0.781903445
C -0.06603277 0.0431317749 -1.0023903287
C -1.5615616347 0.0870515095 -0.9640702805
C -0.7778040757 0.9316512612 -0.008956743
C -2.3391834216 -1.1008075377 -0.462464596
H 2.9176535588 -0.7525253789 0.5144954702
H 1.9447207048 -0.3847456864 1.9605533934
H 3.6519276585 0.0791034686 1.8931832012
H 0.4441002642 0.5090450978 -1.8357546352
H 0.413700312 -0.8526061212 -0.6257799086
H -2.0310135102 0.623978658 -1.7811035425
H -0.7516031814 2.0023589265 -0.1656702173
H -0.7706658638 0.6322204758 1.0325227182
H 1.6194925711 1.2043315625 0.2956797177
H -2.4891184179 -1.8382194109 -1.2539703589
H -1.8109616346 -1.5945187044 0.3568876438
H -3.3214352964 -0.8005016072 -0.0912940609
