16
0
C 3.1666667604 0.6278655112 -0.4006672
C 1.851678049 0.0061644179 -0.3174290576
C 0.7637209352 -0.4895246522 -0.2489316477
C -0.5499068032 -1.1155105541 -0.1656616543
N -1.633491261 -0.1279288844 0.0419219102
C -2.1612257142 0.3811660474 -1.0625084214
C -1.9225323985 0.1441393879 1.306866021
H 3.4166296714 0.8729669169 -1.4338227411
H 3.9353225885 -0.0414902207 -0.0118213736
H 3.189718256 1.5484576036 0.1841455061
H -0.7753278671 -1.6618824933 -1.0810096829
H -0.5884093824 -1.8226069523 0.6621737009
H -2.9131202047 1.1481012507 -0.9726044276
H -1.7828683716 0.0546559073 -2.0146653803
H -2.6645106801 0.8962268823 1.5198208335
H -1.3677805774 -0.3514671684 2.0832986148
