16
0
C 2.0364035125 0.3245225769 -0.5643170779
C 0.6290663885 -0.1970269386 -0.6910625113
C -0.142779147 -0.3459743929 0.3498452174
C -0.9174546094 -0.4879890313 1.3876157473
C 0.1593175445 -0.5384377797 -2.0808183769
C -1.8396848857 0.5723652142 1.9210400839
H 2.2854104237 0.5558488042 0.4701205826
H 2.753047928 -0.4130676462 -0.9370095251
H 2.1638271257 1.2302465746 -1.1640726122
H -0.9042058091 -1.4402161874 1.9138632806
H 0.1924544482 0.3463633968 -2.7231026788
H 0.8136767834 -1.2895608878 -2.5324262988
H -0.8587298772 -0.9245940781 -2.0761152093
H -1.773847624 1.4846246667 1.3288885113
H -2.8765665598 0.2271103323 1.9078010219
H -1.5933696425 0.8154953763 2.9577088454
