19
0
C 2.6049460655 -0.5825112943 -0.5651947541
O 1.3786822926 -1.0118176526 -0.0053624403
C 0.3892114825 -0.1235655595 -0.1083325664
C 0.2328520521 1.114880585 -0.5894089169
C -1.2389130482 1.1348102983 -0.2231566641
C -1.0319011398 -0.3091248378 0.341945525
C -1.8261966362 -1.4276068443 -0.3062960518
H 2.9597265784 0.3254918973 -0.0684363074
H 2.4879856523 -0.3843368398 -1.6350795552
H 3.3212558792 -1.3867757924 -0.4150216571
H 0.1826557442 1.742133592 2.9892801061
H 0.3828228284 1.6277146156 2.2792013997
H 0.881289298 1.8382024773 -1.063159417
H -1.9348169227 1.1743659488 -1.064952163
H -1.5398235828 1.8745267962 0.5225920083
H -1.1299820299 -0.3478357622 1.4309294749
H -2.8846181972 -1.3540561925 -0.0464651152
H -1.7393835964 -1.3844385613 -1.3948121297
H -1.4665697202 -2.4048548737 0.0216452242
