16
0
N 1.2579974938 0.2961954038 1.8298613511
C 1.5618964101 -0.859907971 1.19121404
O 2.3398568312 -1.6725664209 1.6434067719
C 0.8907512982 -1.0659969161 -0.1636702016
C -0.4007652756 -0.341443041 -0.3828911607
C -0.5486377959 0.7236898073 -1.1603488378
O 0.4929998861 1.2866699558 -1.8309434513
H 1.7238795067 0.5024109362 2.6945179147
H 0.6270319471 0.9620084508 1.4240609522
H 1.6257554738 -0.7652621367 -0.9140222235
H 0.7561604747 -2.1432247791 -0.2672742099
H -3.9685268468 0.0833486002 -0.5791621753
H -1.2895950577 -0.7077166046 0.1165462373
H -1.5162835393 1.1983081829 -1.2932379657
H -3.955692315 0.4484155466 0.0701628674
H 0.1766205088 1.9933899859 -2.3932899087
