13
0
C 1.8028033116 0.1791220676 0.0027907106
C 0.3269554214 -0.0182344728 -0.0133813836
C -0.3591214545 -1.1117224122 -0.3264159169
N -1.7514480532 -0.8267795639 -0.2045276914
C -2.0623874927 0.3971558406 0.1731346152
C -0.6983194614 1.0301146069 0.3288786699
H 2.14473302 0.4882537644 0.9936045446
H 2.334253366 -0.7326834957 -0.2709819923
H 2.0966615151 0.9658653284 -0.6965832937
H -0.018574542 -2.0904306187 -0.6332631752
H -2.4544063663 -1.5224180251 -0.3959451723
H -0.6402011484 1.9138603368 -0.3163676645
H -0.5968791157 1.4128006437 1.3505447499
