13
0
O 0.3338092829 -1.6255596032 2.376385933
C 0.1484193066 -0.4513203129 2.2259701681
C 0.6944745708 0.5111751755 -0.9458266116
C 0.1336692861 -0.6721511045 -0.9599582593
C -0.4051024898 -1.8493742477 -0.9503105329
C 0.0269885375 1.6841497538 -0.4775155655
C -0.5056022364 2.6782420316 -0.0702542546
H -0.3209112829 -2.4810864614 -0.0717008123
H -0.8149901241 -0.0491352322 1.8622019887
H 0.9339409648 0.2977348944 2.439170132
H 1.7171301436 0.6189536833 -1.2939861486
H -0.9535518662 -2.2207963266 -1.808133863
H -0.983571093 3.5616537498 0.281743826
