11
0
O -1.5359449948 -1.397237652 -0.9672205164
C -0.4713937663 -1.3485998358 -1.5155443423
C -0.5334510476 0.8443783817 1.3708611728
C 0.692114381 0.7516936043 0.5905355708
C 1.6983905327 0.6693688696 -0.0550371463
H -1.2647660111 0.1159032781 1.0161151072
H 0.3446682131 -2.0525406566 -1.2698681231
H -0.2514495678 -0.6012667644 -2.2993620286
H -0.9692113419 1.8402938632 1.2830688106
H -0.3310195401 0.6484040346 2.424433532
H 2.6025171427 0.6129898773 -0.6137250367
