14
0
O 1.8045056133 0.9475832925 0.2128996442
C 1.5943959288 -0.7012758718 -0.3449785503
C 0.2103162182 -0.9712719873 0.1932370589
C -0.8378464454 -0.2208417074 -0.5825501165
C -1.9101601234 0.5209527031 0.0703585453
O -0.7675263661 1.2152959487 -0.4272823136
H 0.8979285894 1.3162602754 0.1088892999
H 2.3130532835 1.2791954469 -0.532656053
H 2.3073872306 -1.1395784974 0.3653801394
H 0.0547404791 -2.0465187976 0.047390879
H 0.0696270367 -0.7745519209 1.2691646517
H -0.9658827589 -0.5163601741 -1.6196781583
H -1.994069986 0.4876930355 1.1526189229
H -2.8279536998 0.7404512541 -0.4651399496
