9
0
O 1.9981910979 -0.3362208498 -1.0382749065
C 0.9368905131 -0.1148562239 -0.4545434436
C 1.0500715346 1.2750081872 -0.4701105212
C -1.0285410277 -0.4870994444 0.7056321697
O 0.1535566649 -1.0078785557 0.0835275979
H 0.6886974299 1.6947973506 -1.4141936884
H -0.7838588991 0.3828276836 1.31720014
H -1.7657988763 -0.2235888682 -0.0532277372
H -1.4144054373 -1.2847222796 1.3333673892
