11
0
C -0.291868385 1.3356960497 0.2592353217
C -1.2175928634 0.3810550011 -0.0600106997
C -0.8440552042 -1.0183499492 -0.0230471424
N 0.3534170498 -1.4455906904 0.0754216512
C 1.3599713011 -0.4287662175 -0.1058016821
C 1.0364226697 1.002871069 -0.0461760028
H -0.5790083172 2.3504780347 0.5150247547
H -2.2581942718 0.6285797718 -0.2473617177
H -1.6509356279 -1.7476654046 0.0321237733
H 2.1922546395 -0.6102999611 0.5917702184
H 1.8416390095 -0.6108797036 -1.0770744746
