13
0
C -1.6595995299 -1.0421977479 0.3226362145
C -0.6499761933 -0.0664309374 -0.2596600535
C 1.4740240668 2.1653550358 0.0248849389
O 1.8633041646 1.0621655787 0.5991263575
C 1.7128591637 -0.2076797229 -0.0092132566
N 0.6431643948 -0.7136085157 -0.381381398
H -1.715682016 -1.9446408925 -0.2863566582
H -2.6479585325 -0.5820699593 0.3619395663
H -1.3776882816 -1.3316720278 1.3360820496
H -0.9563402544 0.2218675769 -1.2683988302
H -0.6196169651 0.8497165006 0.3439342315
H 1.1333587729 1.8854556034 -1.0058196051
H 2.6669222101 -0.7231444919 -0.0538655563
