14
0
C 1.405413004 -0.625363616 0.3065934831
O 1.458461689 0.7726657266 0.5544576107
C 0.1989288958 0.193017859 0.2330669502
C -0.8076256292 0.1791784913 1.352194921
C -1.0788246951 -0.3041461382 -1.9852393211
C -0.365814371 0.5923356183 -1.111644807
H 1.571974659 -1.2581070874 1.1740184181
H 1.8950923507 -0.9572822044 -0.605799577
H -1.2810978839 1.158603653 1.4482943699
H -0.3247620414 -0.064845032 2.2979118988
H -1.5896304528 -0.5571107867 1.1540559484
H -0.7914031667 -1.3324106437 -1.6811556537
H -0.6989866397 1.6336303575 -1.1333529825
H 0.4391452812 0.5473628029 -1.9095862589
