11
0
N 1.924787923 -0.1393561437 -0.6139524687
C 0.533259333 -0.4900948997 -0.682444105
C -2.7131140071 0.1790975716 0.834424641
O -1.7226528521 -0.2583378404 0.1023007138
C -0.3697825223 0.2071118904 0.3001094305
O -0.0910226315 1.0081456854 1.120603672
H 2.3094084925 -0.3451571776 0.2977173998
H 2.0622378847 0.8480072188 -0.7807721647
H 0.1324518543 -0.2905990696 -1.680678034
H 0.396822848 -1.5651559407 -0.5320126638
H -2.2714743227 0.9111017056 1.552964579
