19
0
C 0.9017151963 0.7814410889 1.014597277
C 1.9788383135 -0.0245156321 0.2984385939
O -0.3630895304 -1.6271445737 -1.9914685654
C -0.5662677122 -1.5051284565 -0.8148476697
C -0.442901867 0.0689714736 1.1564682101
C -1.1672362037 -0.2882602839 -0.152953351
C -1.3346914871 0.8710070593 -1.1220233993
H 1.2507288454 1.0334567894 2.0200352473
H 0.758698253 1.7375423873 0.5027899742
H 2.9365130127 0.4977753227 0.3234198071
H 2.1225327248 -0.9999272557 0.7713013855
H 1.7335782855 -0.198528736 -0.7510943927
H -0.3392975362 -2.34191986 -0.1175116257
H -1.1113169241 0.7007578198 1.7474889624
H -0.3036144439 -0.8486608794 1.7406654413
H -2.1640974036 -0.6442461276 0.1488174508
H -1.9543864033 0.5817259199 -1.9701318329
H -1.8020412285 1.723299268 -0.6251116953
H -0.3730698913 1.1943216759 -1.5231658176
