12
0
C -1.3106434238 0.7712532525 0.1068360546
C -0.6777153355 -0.5037672149 -0.3240319959
O -1.5717853953 -1.3313985101 -0.9111642688
C 0.6125795774 -0.8328214465 -0.1675439294
C 1.5739629769 0.0140795042 0.4470858847
C 2.4069630845 0.7090814947 0.9618666125
H -1.7725560675 1.2599449949 -0.7530597126
H -0.5777421663 1.4384948532 0.5531522719
H -2.1001082754 0.5630372675 0.8316705737
H 0.9657238048 -1.7965620199 -0.5234355059
H -1.1373249286 -2.1464443477 -1.1770834381
H 3.1427361491 1.3263171721 1.4194954533
