10
0
C 2.7025877726 -0.3434106474 -0.2313850158
C 1.5193412521 -0.156628855 -0.2311257384
C 0.1160483554 0.0540526442 -0.2112546937
C -0.7548408657 0.5656137561 -1.1803080438
N -1.9154333795 0.4705311752 -0.4735322063
N -1.8758441752 -0.0137094441 0.7560503453
N -0.6145130727 -0.2641212518 0.8980377709
H 3.7547460165 -0.5034499379 -0.2484976334
H -2.8255056564 0.7420886538 -0.8086927812
H -0.293519247 -0.6530250933 1.7707799964
