13
0
N -2.0337880574 -0.6590528804 0.2018400577
C -0.6713721464 -0.1254766633 0.05966077
C -0.2370402875 1.1704658535 -0.0806757334
C 1.1697920113 1.0200241058 -0.1676293046
C 1.4086388628 -0.3493797442 -0.0691046444
O 2.6027437404 -1.0112444766 -0.0989381087
N 0.2879726306 -1.0634273195 0.0709561764
H -2.6293580204 -0.4712300347 -0.6033145123
H -2.5099549857 -0.3361541651 1.042788346
H -0.8124634696 2.083695342 -0.116137665
H 1.8983849777 1.808088403 -0.2901357259
H 3.2970913721 -0.3599026469 -0.2017262103
H -1.8850866279 -1.6689507735 0.2737695543
