14
0
C 1.7977428208 0.9971288863 -0.8448353973
N 0.6667003078 0.4492518256 -0.8157702798
C 0.2815537073 -0.2131416496 0.4167830236
N 0.5890460764 -1.628438309 0.2907623425
C -1.2070161954 0.0082599768 0.7292497123
O -1.6597315618 -0.370851243 1.7906260374
N -1.9355017951 0.5915398765 -0.2420966629
H 2.4775227076 1.0069336445 0.0140718969
H 0.8341497449 0.1744737541 1.2819849933
H 2.1329087716 1.482066362 -1.7595700357
H 0.2156066732 -2.1117803903 1.0997327699
H 0.1240548517 -2.0022801459 -0.5292153305
H -1.4911286929 0.850545025 -1.1055095018
H -2.9215604161 0.7197963868 -0.1032155679
