16
0
C 1.8575994554 -1.0436198172 0.8302605889
C 0.5979516146 -0.3528781844 0.4310852868
C 0.6038168253 0.7612729706 -0.5962365548
C -0.865119066 1.076341333 -0.7900250461
C -1.6376639462 0.2151045536 0.132692489
N -1.6463530342 -0.0433351621 -1.3213832362
C -0.6369093432 -0.6178997561 0.851357445
H 1.6764011801 -1.7890913125 1.6046641256
H 2.5956455962 -0.3276834355 1.2030882771
H 2.3090229332 -1.5472346716 -0.029063288
H 1.1571366574 1.631806838 -0.2285350822
H 1.0769324199 0.4428345346 -1.5297931911
H -1.1783513421 2.0858662471 -1.0256202263
H -2.5541979368 0.5424019384 0.6077834742
H -2.505738232 0.315903281 -1.7230636239
H -0.8975987813 -1.3780943571 1.5771235623
