19
0
C 2.5783304851 -0.8771742825 -0.0374403814
C 1.1485834898 -0.4344936682 -0.1478308557
O 0.6644027953 -0.0835014163 1.1174613373
C 0.691383416 0.3314972002 -1.3478553161
C -2.256249191 1.6851786976 1.0714878144
C -2.7478765072 0.45575194 1.0732865552
C 0.2327049425 -1.0971420521 -1.1269367291
H 3.1934967658 -0.0689950788 0.3622902682
H 2.9721056658 -1.165600444 -1.0125609318
H 2.6557697008 -1.7333281666 0.6352105045
H -0.2456640471 0.2192711902 1.0380536571
H 1.3985921678 0.5334767164 -2.1424770207
H -0.0404151893 1.1143592713 -1.1875532219
H -1.8404807737 2.1334198342 1.9668665605
H -2.2542003368 2.2943820358 0.1746608035
H -3.1684521967 0.0116675419 0.178053423
H -2.7562376078 -0.1522820814 1.9709819662
H 0.6255064347 -1.8728500903 -1.7722292745
H -0.797374014 -1.2449891476 -0.8250081584
