14
0
C -1.8531871408 -0.7858508424 -0.7320914203
C -2.4958876008 0.207307382 -0.1380398191
C 0.983603052 1.6721035832 0.1289069453
C 2.0507552533 2.0621628184 0.501481497
C 1.7448650728 -1.4423556366 0.3226664746
O 0.9516389326 -2.0313998243 0.9993434175
H -1.2238336564 -1.4702254768 -0.1725462203
H -1.9408279522 -0.9533393605 -1.8002032211
H -3.1316484864 0.8883385736 -0.6928755619
H -2.4182588289 0.3716915181 0.9312826401
H 0.0302069312 1.3155163145 -0.196446696
H 2.9950652764 2.4205010979 0.8393478895
H 2.7420843081 -1.1558099818 0.7033940253
H 1.5240208391 -1.1528981651 -0.7219259505
