14
0
C 1.6611584153 0.9590335727 0.2538115003
N 0.5315089255 0.2947930916 0.8802263377
C -0.6113783111 -1.818967523 -1.4781287717
O -0.3927576168 -0.4909649283 -1.7569814847
N -1.358617272 -1.5221877133 -0.4043393869
C -1.247388975 -0.1049845945 -0.6321510776
N -0.7158839963 0.6915102601 0.3842696911
H 1.7227830472 0.6584031766 -0.7912207522
H 2.5733834237 0.6393799396 0.7583991256
H 1.6014789141 2.0572607381 0.3043851696
H 0.526676702 0.4356341012 1.8792725325
H -1.8415521017 -2.0890854252 0.2666944458
H -2.1522947464 0.372329489 -1.0135589151
H -0.7877854086 1.6818328152 0.1746265857
