10
0
N 0.3117121019 1.1934329934 -0.1563039325
C 1.3626172511 0.443570881 0.1188386971
C 0.7221699285 -0.8532165523 0.5563990552
C -0.7635610193 -0.6563720973 0.4672152784
C -0.9609533482 0.5819731665 0.0359278143
H 0.4022575021 2.1418388926 -0.4835949967
H 1.0691160023 -1.1006078655 1.5653094521
H 1.091160474 -1.6630574507 -0.0823186819
H -1.5276892114 -1.3801480424 0.7047150454
H -1.8727296811 1.1252060746 -0.1650237315
