16
0
C 1.2869575422 0.6076210402 -2.3814303906
N 0.3486069228 0.8086300096 -1.3083802357
C -0.1749991803 -2.0700235983 1.7385217178
C 0.2727533192 -0.0909711423 -0.4096931436
C -0.6176971604 0.0391548992 0.702269547
O -0.7194876126 -0.9050965411 1.5993603179
C -1.4782597452 1.2326498766 0.9202850122
H 1.9946261294 1.4402999336 -2.4081218603
H 0.7550145125 0.6161948236 -3.3363851809
H 1.8519121844 -0.3323501814 -2.302949092
H -0.4797325309 -2.6020283988 2.6232392838
H 0.5205123555 -2.455793299 1.0091885923
H 0.9009438468 -0.9904225824 -0.4594463095
H -2.008178985 1.1419565088 1.867840764
H -0.8816515869 2.1475229432 0.9318991746
H -2.2103980115 1.3472387085 0.1163888031
