11
0
C 1.4420750929 -0.5570792721 0.1747563144
N 0.4921389843 0.5018157491 0.4367879617
C -0.7836364035 0.5417677905 -0.0264615028
N -1.477288599 1.6073770387 -0.0292937755
C -1.32024351 -0.7367786853 -0.4920958192
N -1.7882665952 -1.711396636 -0.8756282841
H 0.9423955231 -1.5245114226 0.2149733622
H 1.9275122162 -0.458354487 -0.801006412
H 2.2068645685 -0.5465614373 0.949989117
H 0.8483823123 1.4111681206 0.6824614638
H -2.4208055897 1.440534241 -0.3566344254
