19
0
C -2.4250223114 -0.4878833387 1.731761866
C -0.6028141834 1.5805082078 -0.2190126028
C -0.1828030068 0.6262808053 -1.1708191425
C 1.3533692611 0.7641809651 -1.4852345623
C 0.9085625031 -0.3988816531 -0.7426080397
C 1.2539043223 -0.5988866049 0.7116877657
O 2.4779638244 -1.2992246239 0.8396068879
H -2.3799754001 -0.9537550561 0.7475358612
H -3.451293616 -0.192203786 1.944617122
H -2.0904383185 -1.2005182162 2.4845795968
H -1.7791623937 0.3910843347 1.7519171206
H -1.6055444677 1.9427952097 -0.510861794
H -0.7739412139 0.2993225322 -2.0242588251
H 1.5779506492 0.6811870442 -2.5398971131
H 1.8446263297 1.5700205144 -0.9575248384
H 0.813559201 -1.3215552833 -1.3043719008
H 1.2721706375 0.3620933871 1.2302797491
H 0.4983139531 -1.2231522496 1.1901143809
H 3.1876972302 -0.7265291885 0.5430804687
