13
0
C 1.6238171455 0.3441808295 -0.4843563266
N 0.2152422337 0.0581446318 -0.2650351563
C -0.5695307096 0.8610946606 0.6758312139
C -0.3563119255 -0.5756146671 0.9942514247
C -2.2003742743 -1.4872190699 -0.8524323518
O -2.9794224698 -2.2231312849 -0.5054906967
H 1.7506767043 1.113028982 -1.2494110326
H 2.1324496107 -0.5683773727 -0.7957735971
H 2.060499234 0.6885683476 0.4515781088
H 0.01078562 1.6727656941 1.1123469694
H -1.5348904875 1.1861865605 0.2908784025
H 0.4920345648 -0.6913360024 1.6765182484
H -0.2935622465 -0.2396173091 -1.0925072068
