12
0
O 0.0555662478 -0.3954760794 1.7523227328
C -0.0953891988 -0.6296457172 0.4652841207
C -0.0321856115 0.3781410506 -0.5136558239
C 0.271865639 0.6811281619 2.4101185542
C -0.1799319988 0.1907728254 -1.8464431719
C -0.4219151166 -1.0914801426 -2.4076432449
N -0.6174180695 -2.1365988854 -2.850089662
H -0.2687647893 -1.6728314522 0.2550767196
H 0.1511174784 1.3972391932 -0.1905271319
H 0.3620518605 1.6362716809 1.9123806908
H 0.3523876511 0.5528460931 3.4769472711
H -0.1145780927 1.0222542717 -2.5333510545
