19
0
C -1.6305153697 -0.7720248265 1.7036639577
O -0.4869714748 -0.6809080692 1.0943298395
C -0.2195687501 -0.4812140282 -0.1522993681
C -0.9518923378 2.6823594805 0.6396283516
C 1.1994501536 -0.2851955256 -0.5476557851
C 1.6950812622 -1.3316811079 -1.5452127279
O 1.6829595159 -2.6348135303 -1.0081527557
H -2.5449333278 -0.7322919116 1.1271981836
H -1.4486319569 1.8503428369 1.1419938137
H -1.5696312067 -0.9897486718 2.7549219284
H -1.058349628 -0.3574010569 -0.8314397481
H -1.3321665423 3.6209856136 1.0401210694
H -1.1460085233 2.641019877 -0.4314591937
H 0.1212790099 2.6205296215 0.8155968693
H 1.8178188919 -0.3252637598 0.3520698768
H 1.3357047111 0.7091654907 -0.9937290477
H 1.0948500228 -1.2819234658 -2.464634655
H 2.7306997042 -1.1220610085 -1.8185223416
H 0.8040708458 -2.7985199581 -0.655030267
