13
0
N -1.4285633149 -0.2024272293 -0.7744242542
C -0.8002412433 -0.4493507244 0.4312678911
O -0.038131439 0.6123946544 0.8991356773
C -0.9556305731 -1.5045201283 1.2224174483
O 1.7928282873 0.1014119351 -0.5213516786
C 1.0755985981 1.0016666626 0.227207702
N 1.0630641043 1.201474408 -1.1850216434
H -0.8581765724 0.3028100663 -1.4379551964
H -1.8595698459 -1.0201387197 -1.1727092837
H -1.5900850224 -2.3280372919 0.9274508221
H -0.4714393855 -1.5321550778 2.1856945933
H 1.6445970954 1.6804315748 0.8567038316
H 1.7794193114 1.8845068702 -1.4309339092
