11
0
O -1.6516088406 1.6301257015 0.8029463149
C 0.9792147711 0.3718204407 0.1757582963
C 1.3712077896 -1.0445982163 -0.1557155977
O -0.0637885661 -1.3749563778 -0.2197704983
C -0.2792304257 -0.0605219788 0.0862989063
N -1.5807697869 0.3961533369 0.1447648651
H -1.9763894339 2.2317984124 0.1284194547
H 1.483185266 1.2919231431 0.40081141
H 1.8298975224 -1.2314288885 -1.1276155629
H 1.8505552695 -1.6351761612 0.6258999805
H -2.1853425652 -0.2599984122 0.6253494311
