16
0
C 2.6314361443 0.4889749256 0.5107835325
C 1.2908899346 0.2672709718 -0.119915407
C -1.0897896974 -1.0257583715 -1.2913053424
N -1.0728374316 -0.2574987603 -0.2900221769
C -2.2589620787 0.4048780555 0.2209843467
C 0.2188741022 -0.0835854975 0.6298386093
O -0.0530230553 -0.2800061654 1.8081678989
H 2.5587500673 0.3655232819 1.5919650636
H 3.0137497814 1.4952232258 0.3138430182
H 3.3833763232 -0.2187914074 0.1470362445
H 1.1688368408 0.4412337498 -1.1804567033
H -2.0014739695 -1.1696765631 -1.8644793932
H -0.1720696858 -1.5311286866 -1.5671940313
H -2.3435627619 0.1397343156 1.2731726589
H -2.1083336857 1.4815072649 0.1456593075
H -3.1428708279 0.099771661 -0.336625626
