13
0
C -0.8068454622 -0.1211628653 1.5335991282
C -0.3780051335 -0.0241511851 -1.5442735328
O 0.1646660182 -0.2498528523 -2.7172225404
C 0.6998082927 -0.1300509527 -0.516334077
C 0.3490313442 0.550262931 0.8050357927
H -0.5573398638 -1.1530667417 1.7956158251
H -1.6983429563 -0.1428849677 0.905011653
H -1.0526319005 0.4065513865 2.4568244557
H -0.5302259457 -0.2081176824 -3.3820012175
H 0.8137952594 -1.2141981113 -0.357325868
H 1.6588483034 0.2184932477 -0.9202384833
H 1.2369765104 0.5597404028 1.4431222975
H 0.1022355336 1.5974153905 0.6070405668
