17
0
C 1.8969391998 -1.4415351811 0.258574248
C 1.2246554526 -0.2053088413 0.6804383537
C -0.3993468185 2.1597926156 -0.3645609821
C -1.0924628915 0.9595742855 0.2243784192
O -1.8184780599 0.1930356022 -0.7607331196
C -1.0299333866 -0.9801080122 -0.5636089262
C -0.2180797168 -0.2700844377 0.5457387336
H 2.8567637646 -1.607967778 0.7470052597
H 2.144767632 -1.1692798636 -0.7845576084
H 1.3036026284 -2.3649488648 0.2140889757
H 0.1747131881 2.6778577182 0.4049495562
H -1.1354187825 2.8484442462 -0.7827388557
H 0.2903215613 1.8611279686 -1.1570180137
H -1.7655066212 1.2608072258 1.0336050284
H -0.4586998561 -1.24705648 -1.4594091142
H -1.6351066374 -1.8378949822 -0.2583972442
H -0.4262986563 -0.6778282212 1.5547092896
