14
0
C -1.6199177894 0.3458591699 -0.337054646
C -0.1421420698 0.2559871376 -0.1735216922
C 0.812887126 1.0754037882 -0.6243715888
C 2.126769301 0.5522846026 -0.1999172836
O 1.7798126546 -0.641620873 0.5313115137
C 0.4901914224 -0.8601448614 0.5777883115
H -2.0007722623 -0.5554318377 -0.8210038484
H -1.9137009224 1.2131438742 -0.9283722285
H -2.1046586553 0.4053142231 0.6392838438
H 0.6931095844 1.9801656651 -1.205856226
H 2.6785536498 1.2127422529 0.472964783
H 2.7829121684 0.2651038577 -1.0249040008
H -2.2152658064 -2.8359219396 1.8820827248
H -1.5782534007 -2.5353820595 1.6288273375
