11
0
C -2.1788829232 -0.3080917392 0.256797311
C 0.0399044129 0.173280484 -0.5300560213
N -1.0370737964 -0.3262611785 -0.6296409939
O 2.2079674941 -1.1772152942 0.676262296
C 2.3395097342 -0.1012854865 0.1412975195
C 1.2728049261 0.664635903 -0.4909211697
H -2.410776002 -1.3353437921 0.5337292029
H -1.9936142676 0.2826093606 1.1552533473
H -3.0325451133 0.0979707623 -0.284032224
H 3.3315325831 0.3897483588 0.1014257564
H 1.471059952 1.6334166217 -0.9279540243
