14
0
N 0.1337857701 2.013047646 -1.5921165197
C -0.1919349484 2.6039216726 -2.5379215206
C -0.0802063868 0.3733355591 1.2679609947
C 1.1186265416 -0.0773543278 0.8644902912
C 0.9256877699 -1.1515720149 -0.115255257
C -0.3869490895 -1.3455349954 -0.2962055178
C -1.1567641005 -0.3998904879 0.5714026858
H -0.265564967 1.1509108996 1.9957504844
H 0.4007713611 1.4999401882 -0.7671151494
H 2.0808615888 0.2784080251 1.2089407354
H 1.7264499027 -1.6855880522 -0.6078356641
H -0.8465826414 -2.0615186646 -0.9624607053
H -1.8255589814 0.2435692997 -0.0124360101
H -1.7954158194 -0.9314737472 1.2858391525
