15
0
C 2.1556286238 -0.6714976141 0.7839501579
C 0.7833504541 -0.2350066652 1.0686047928
C -0.1771116341 -0.7068212918 0.0700969244
C -1.4817138935 0.07029694 -0.052055534
C -1.2622272263 1.4319029673 -0.6973721064
H 2.5392766862 0.2421590103 0.2943289093
H 2.7729018764 -0.7977512973 1.6736707833
H 2.2919249622 -1.5002920488 0.0732995785
H -0.5705067252 2.0294709045 -0.0982016956
H 0.2533649699 -0.9534718735 -0.916501243
H -0.3699206758 -1.6919530583 0.5480416016
H -1.9029433162 0.198709079 0.9477004619
H -2.2016787682 -0.508846397 -0.6376230711
H -2.196570205 1.988535514 -0.7854585602
H -0.8378481283 1.3312518306 -1.7003659994
