14
0
C -2.1296525248 0.7831114253 0.9059174982
N -0.9008730117 0.084600839 0.5902537026
C 1.6432045968 -2.4531832104 -0.6308767582
C 1.4707873774 -1.1765782547 -0.5025867226
C 1.3027162493 0.1102676864 -0.3736442653
C 0.0152530013 0.7264666443 0.0199724325
O -0.1047534748 2.0527176408 -0.275374332
H -2.5703318812 1.257399768 0.0233881764
H -1.9608202839 1.5697208369 1.6479129906
H -2.8459211442 0.0721628883 1.3153276759
H 1.4772407941 -2.9469226689 -1.5811116284
H 1.9428069104 -3.0593011682 0.2160725963
H 2.1490390561 0.766989118 -0.5590388385
H 0.6495353352 2.3505284552 -0.7877525275
