16
0
C -0.2152019533 -0.6384402084 -0.9584591212
C -0.6939603976 -0.1992181797 0.4120013335
C 0.1637017444 -0.6260188816 1.5766891666
C 1.2828274871 -1.3276934579 1.5019298598
C -0.9009226638 1.3003932079 0.4974833362
O -0.7585452301 2.0669736551 -0.4129423199
H 0.7681114166 -0.2224047703 -1.1823385802
H -0.8996284797 -0.2872222117 -1.7296801804
H -0.1556059036 -1.7258578789 -1.0175161721
H -1.6975608225 -0.613547487 0.5992200058
H -0.1918281991 -0.310254328 2.5553030748
H 1.6874894149 -1.6734710832 0.5582298798
H 0.6489477877 2.0891612015 -3.4789319839
H 1.835842679 -1.5882101919 2.3956208475
H -1.2148410144 1.6693323484 1.4972233211
H 0.3032741344 2.1002382657 -2.8175574672
