11
0
N 1.4584343841 0.3026149965 0.3040597999
C 0.218367862 0.4131653229 0.3605443332
C -0.9591777541 -0.3942654368 -0.132921824
O -1.8456421114 0.5975267509 0.4655823392
C -0.8233376938 1.3715057741 0.9359404797
O -0.869142442 2.3810404944 1.5461624835
H 1.9164895697 1.0807284666 0.777995016
H 1.6669190977 -1.7007824895 -1.5287117794
H 1.483265103 -2.2126290299 -2.0403148551
H -1.0875232597 -0.4400603316 -1.2134467191
H -1.0910877554 -1.3731335175 0.3260307262
