16
0
C -1.2339656901 1.6285491378 -0.0160522364
C -0.403123946 0.4071667359 0.3246562479
C -1.1780284592 -0.8808539212 0.1333269435
O -1.0146194268 -1.8661295165 0.8056579992
N 0.7933682971 0.3644196921 -0.5085706328
C 1.6549076833 -0.8009450438 -0.3518279335
O 2.037771583 -0.9736347033 0.9803142313
H -0.6279797843 2.5284342203 0.0865873209
H -2.0986499569 1.7122127644 0.644205026
H -1.6017196365 1.5806609129 -1.0456199058
H -0.0801127918 0.4468321383 1.3671629453
H -1.8618613721 -0.9078873406 -0.7445151799
H 1.1931354706 -1.7285549313 -0.723512711
H 1.3603444384 -1.496877236 1.4188472402
H 0.5770341642 0.5239233718 -1.4846723676
H 2.556744427 -0.6111872808 -0.9364349873
