13
0
C 1.774028109 0.1221484767 -0.167233905
C 0.2997777273 0.0257113284 -0.027224839
C -0.6855431379 1.0678139455 0.3921507485
C -2.0680122512 0.4484207079 0.3530026126
C -1.8123225784 -0.8116826447 -0.0485011956
N -0.3947742225 -1.0345835359 -0.2667353129
H 2.2171360819 0.4643867345 0.7697622257
H 2.2307761835 -0.8283637103 -0.4440214853
H 2.0264568132 0.8632255733 -0.9287162581
H -0.4353976441 1.433074409 1.3954917933
H -0.6083656064 1.9473741624 -0.2574947673
H -2.4518596591 -1.6640628586 -0.2330190038
H 0.0174021846 -1.907159588 -0.5701746132
