13
0
O 2.1814905118 0.3985150994 2.0387723488
C 1.8683220665 0.7748931331 0.7143851372
C -1.2130001392 -0.050308022 -1.0594534848
C -1.9765763661 -1.2040045099 -0.7035521083
C -2.6270389141 -2.1735025014 -0.4326636718
C -0.4050286832 0.55988598 -0.2306475792
C 0.4181615382 1.1610648004 0.5725570118
H 1.6383978379 -0.3573762647 2.2725310746
H 2.1110907147 -0.0170846313 -0.001972783
H 2.5031106771 1.6349233199 0.4931841531
H -1.3209807191 0.3294660431 -2.0711661945
H -3.2047694759 -3.0325402566 -0.185896867
H 0.0571129514 1.96594281 1.2073809631
