13
0
O 1.2739799208 2.1009060828 -0.3511192472
C 1.7599005596 1.0267295177 -0.1298886942
C 0.9900788167 -0.2121131601 0.2505821258
C -0.3720768077 0.0962231024 0.8087098053
C -1.3847974144 0.3266471414 -0.2307481149
N -1.3513276568 -1.0189992739 0.3888754972
H 2.856352561 0.8777961705 -0.2356515405
H 1.6054166443 -0.7839487743 0.9523211215
H 0.9848767284 -0.8096579816 -0.6920794447
H -1.0791498744 -1.772010561 -0.2331163766
H -1.1485737887 0.2734220055 -1.2972274325
H -2.2724075466 0.911549227 -0.0135367352
H -2.0605011423 -1.2726044964 1.0567680362
