15
0
O -2.4609230101 1.2115787716 -0.2686743597
C -1.0819079502 1.0921551027 0.0268740118
C -0.8004906002 -0.3784133963 0.2524285342
C 0.650746858 -0.7220997851 0.4497264164
O 0.7697858048 -2.0736230353 0.7048746334
C 1.6759698709 0.2124328383 0.9105730835
O 1.5826421079 -0.1964342359 -0.4637624
H -2.6565194055 2.128299019 -0.4652108555
H -0.831977352 1.6716249072 0.9251332223
H -0.4661652849 1.4630129245 -0.801050295
H -1.1561874612 -0.9434786041 -0.6123837191
H -1.3594191481 -0.7343096896 1.1199448252
H 1.4541650053 1.2588647583 1.0974411879
H 2.5375508575 -0.177219563 1.4469065652
H 1.6938417078 -2.3213250122 0.6159261496
