15
0
C -2.3214039246 0.4134250659 0.0763192707
C -0.8989885242 0.1072770382 -0.2982933631
N 0.0872995511 1.2122812314 -0.1488903002
C 0.1925343091 0.0884552856 0.653744886
C 0.9421218507 -0.4945877698 1.5698316873
O 2.2125780196 -0.463981845 -1.5865544197
H -2.8631257914 -0.5065290521 0.3052718546
H -2.3506109193 1.0599833272 0.9533030142
H -2.8351864273 0.9172035565 -0.7445944383
H -0.764104315 -0.5330382373 -1.1677697514
H 0.787397338 1.245222808 -0.883789485
H 2.0692110829 -0.8186043613 -0.7017078874
H 0.648673224 -1.4463310314 1.9915407478
H 1.8320826165 -0.010350263 1.9533616217
H 3.1557549098 -0.5206117529 -1.7424924373
