18
0
C -0.5058330364 -1.2657793177 -0.5815480056
C 0.1632068572 -0.1747410934 0.2648562006
C -0.8822391468 0.7183010429 0.9461210841
N 1.1115706671 0.6148269007 -0.5283530726
C 0.998581082 -0.8539418823 1.3523178223
C 0.8069278648 1.3235696809 -1.5169333981
O -0.3907377233 1.5565412058 -2.1047624446
H -1.0877913457 -1.9323919756 0.0578681232
H -1.1867584757 -0.8742109756 -1.3412600648
H 0.2515649941 -1.8589138326 -1.0960639131
H -1.084381942 1.0745542519 -1.6465405026
H -0.3891553524 1.52155901 1.4955220753
H -1.5840925783 1.1814164358 0.2480559298
H -1.4731539164 0.1318068025 1.652317239
H 0.3745561145 -1.4731306347 2.0008738837
H 1.7650906323 -1.4825655392 0.8970944774
H 1.5034330216 -0.1028791905 1.96134546
H 1.5814092837 1.8750101113 -2.0452358938
