13
0
N -2.1293466035 -0.3069976737 0.3462600601
C -0.7921892961 -0.0315456835 0.1177048338
C -0.1050847121 1.1147627168 0.1234039449
C 1.3464870271 0.7996735059 -0.0958920256
C 1.3692261081 -0.7209648292 -0.1962219846
O 2.3188264705 -1.4538542169 -0.3035049512
N 0.0511750256 -1.1252622066 -0.1201678509
H -2.5338394193 -0.9580650098 -0.309961209
H -2.6952181977 0.5215975705 0.4322830404
H -0.5278435679 2.1006690935 0.2325558474
H 1.7561845318 1.2191528156 -1.0189000395
H 2.0115195654 1.1052192026 0.7159628556
H -0.197846932 -2.0820412851 0.0629134784
