14
0
C 1.5835599947 -0.2960858876 -1.0480218199
O 0.2313301753 0.1040069796 -0.9678163701
C -0.5473903421 -0.6546591434 -0.0719707505
C -0.4009020041 -0.3678185962 1.3803868764
C -1.6570225105 0.0973129178 0.6611006429
O -1.2563595583 1.6736091011 0.234971226
H 1.6565241472 -1.323722279 -1.4167328437
H 2.0732670146 -0.234066765 -0.0715304136
H 2.080659784 0.3722007268 -1.7504142392
H -0.773010432 -1.651174783 -0.4413482151
H 0.3487338845 0.3667815176 1.6561304984
H -0.5344821686 -1.1576322135 2.1099433395
H -2.0878871097 1.9534220423 -0.1586046909
H -0.587601875 1.5293313823 -0.4799812401
