10
0
O -1.1780117007 -1.7796911699 0.1612963293
C -0.8040620531 -0.4535422456 -0.0563660187
C 0.4238988113 1.9677382114 -0.3297922912
O 1.2317904254 1.0051475565 0.0294655365
C 0.6716315689 -0.282828496 0.1937738513
O 1.4070947978 -1.1517944542 0.5189881729
H -0.3924981334 -2.2797487344 0.4080011867
H -1.0233311943 -0.1367953425 -1.0807982317
H -1.3540182872 0.2295596012 0.5975522151
H 1.1044547652 2.8418690733 -0.3815767502
