19
0
C 2.5058602378 -0.3996934378 0.5060486799
C 1.3491170714 -0.2305314635 -0.4682955393
C -0.0077192736 -0.439076262 0.1831733932
O -0.1596959152 0.5383211518 1.1949896462
C -1.1429413447 -0.3447864248 -0.830831634
C -2.508816875 -0.5348448843 -0.2390740509
O -2.7324747297 -0.6609250141 0.9376517447
H 3.4640095979 -0.2419646703 0.0084087774
H 2.4234469098 0.3124615183 1.3267045864
H 2.513754008 -1.405062379 0.9345424184
H 1.4487817413 -0.9374991946 -1.2978276325
H 1.3689282543 0.7741869737 -0.9033297073
H -0.0330522706 -1.4408113409 0.636893196
H -0.9683709507 0.3243143712 1.671795566
H -1.1372525544 0.6362445574 -1.3224616878
H -0.9386068274 3.4863200073 -0.0771847021
H -1.022739783 -1.0828383361 -1.632262895
H -3.3478578443 -0.5517509474 -0.9635599518
H -0.678686452 2.8608507753 0.2384217923
