17
0
C 1.974893221 -0.5569920739 0.3597739588
C 0.6029911215 0.072220666 0.5505502368
C 0.1589960788 0.9641258178 -0.6266824762
C -1.3771510154 0.9100654581 -0.6489092329
C -1.6953292978 -0.4357760236 -0.044974808
C -0.5249972434 -0.92861068 0.6686279679
O -0.9117610327 -1.4991735604 -0.578060387
H 1.9731754654 -1.2041860059 -0.5200644861
H 2.7409960415 0.2075092607 0.2140295347
H 2.2635734771 -1.1595452339 1.2237238592
H 0.5992842312 0.6615474456 1.4757485636
H 0.553489344 0.548006534 -1.5547627527
H 0.5423189388 1.9813144866 -0.5378734791
H -1.8155975369 1.6882722431 -0.0169379461
H -2.7107121572 -0.7022910647 0.2302152011
H -0.589764694 -1.5948242224 1.5238251982
H -1.7897339422 1.0285269528 -1.6525919523
