14
0
O 2.6961376425 -0.7248295377 -0.474317046
C 1.3414174947 -0.3668811625 -0.6538218193
C 0.7402209847 0.314479001 0.5646107285
C -0.7141459374 0.7030232018 0.3276823304
C -1.6229279148 -0.4781605489 0.2457041259
O -2.6342362429 -0.162086369 -0.5258613193
H 2.7485911004 -1.3652241699 0.2374410107
H 0.7337674832 -1.2435769054 -0.9198701077
H 1.3236590935 0.3113477091 -1.5108018263
H 1.3380956391 1.194462605 0.8129747622
H -0.832286912 1.3871369492 -0.5230218579
H -1.0948557975 1.2341468312 1.2131164902
H 0.7866192034 -0.3672681662 1.4200767537
H -3.2434598368 -0.9076214378 -0.5456972248
