13
0
C 1.9597588292 0.8058859075 -0.5676637703
O 0.5728651168 0.7840595053 -0.3436488521
C 0.0193474069 -0.4888714615 -0.489143445
C -1.465430999 -0.4151574964 -0.2578780387
O -2.0226809589 -1.6341404171 -0.3821237604
N -2.1576733365 0.5968051286 0.0150699418
H 2.2040825842 0.4885338405 -1.5891075489
H 2.4899736908 0.1547540485 0.1383784471
H 2.2944984281 1.8317693095 -0.4247334215
H 0.4496513286 -1.2015717425 0.2285583677
H 0.194994705 -0.8936250871 -1.495998714
H -2.9679525676 -1.5198469414 -0.2262906594
H -1.5663312275 1.4205134059 0.0663964537
