11
0
C -1.1899191604 -0.7727876517 0.603186684
C -0.1402762436 0.0739582659 -0.0097356329
C 1.3438533981 -0.0637010456 -0.244612331
O 1.323394875 1.2565295851 -0.865881243
C -0.0330500032 1.2640760219 -0.5957871131
H -2.1614158152 -0.2802501603 0.5479758729
H -1.273529483 -1.7374452924 0.0958374638
H -0.9776286128 -0.9766096378 1.6560645107
H 1.6645974743 -0.8193793076 -0.963440625
H 1.9885012149 -0.0625553829 0.6357941627
H -0.654404644 2.1053076055 -0.8735817489
