14
0
C -1.7491102234 -0.2494967904 0.3293838757
C -0.4013225992 -0.9477355104 0.5119749983
C 0.2776030421 -1.1585737145 -0.8084542452
O 1.3591356532 -0.7286353721 -1.1134836191
C 1.831977892 1.8558480467 -0.094491601
O 0.8322450189 2.1952988311 0.4741696152
H -2.2757649065 -0.1847623291 1.2811672851
H -1.6081055709 0.7645830284 -0.0462773871
H -2.389196751 -0.7934508339 -0.3692762549
H 0.2543192462 -0.3750700597 1.1672156545
H -0.5549407324 -1.9389736016 0.9539179197
H -0.3027734612 -1.758084425 -1.543022556
H 2.6646677951 1.3556865683 0.4312091089
H 1.9792695971 2.029418162 -1.175139794
