13
0
C 0.7386977206 0.166907203 0.2567867473
O 1.3876686404 -0.9491586559 0.8900984007
C 0.3095281064 -1.829507692 0.5412860314
C -0.4447483021 -0.7024434346 -0.1751351318
O -0.9913967758 2.3239013988 -1.2629309852
H 0.5063175836 0.9599051001 0.9722639002
H 1.3431951955 0.5849422934 -0.5517303026
H -0.512983412 2.7248573846 -1.9899040057
H 0.6493379589 -2.6548980707 -0.0913547747
H -0.179352075 -2.2408667716 1.4296294387
H -0.5580129057 -0.8235606647 -1.249936702
H -1.4049287412 -0.4257806986 0.2535686202
H -1.2119409938 3.0461356079 -0.6731742362
