14
0
O 0.3879098919 0.1590005118 -2.7798461005
C -0.8994590424 -0.2317581684 0.8941756615
C -0.4027298833 -1.5835444758 1.1582673946
N 0.51106687 -0.5555864178 0.6292024379
C 0.153563207 0.4623951195 1.6353068418
C 0.7875329781 0.9950121892 -1.8173531855
O 0.1317981739 1.9083553167 -1.4037024731
H -0.4980450612 0.4353659058 -3.0502742877
H -1.5742377505 0.1397535769 0.1382680196
H -0.2647455068 -1.9029722709 2.1902506879
H -0.6244336971 -2.372207796 0.4483649705
H 0.3138839817 0.2131654447 2.6830364757
H 0.4113011266 1.4724491848 1.3382505945
H 1.793402712 0.7310418794 -1.4779160371
