14
0
O 1.8815885678 1.8520089152 0.3507989871
N 1.7220616309 0.6573744731 -0.0732132109
C 0.5912344974 0.1078610506 -0.3167471165
C 0.1144025038 -1.2898057377 -0.5808100378
C -1.2199662008 -0.8405428345 0.089029492
C -0.7614838249 0.6423678285 0.0320939374
O -0.8404313907 1.3556384636 1.227896399
H 2.5710270148 0.1009852871 -0.2060471345
H 0.6587038462 -2.1011605152 -0.0974213223
H 0.0083824609 -1.5166102037 -1.6431091728
H -1.28639506 -1.1662025381 1.1255004761
H -2.1382590188 -1.087624768 -0.4394164453
H -1.2262434943 1.1851088984 -0.8024140223
H -0.0610295321 1.9315926806 1.2495751707
