10
0
O -0.5247610495 -1.586639556 -0.7134376779
C -0.0818625555 -0.4261975587 -0.1593326205
C 1.1377292291 -0.3786249964 0.4009733821
O 1.7390048155 0.668908043 0.9931921684
C -1.0078866944 0.6922729559 -0.2291654649
O -2.0966667297 0.5780735284 -0.7482771588
H -1.4110116882 -1.397063054 -1.0516882167
H 1.1792145342 1.4489653034 0.9858532189
H 1.7626933233 -1.2633348325 0.4083677385
H -0.6957141848 1.6609181669 0.2037656309
