11
0
C -1.8784922939 0.1978170552 0.6507067411
C -1.5800527578 -1.0173268261 0.2628126102
O -1.3204262943 -2.0834095179 -0.0931998412
C 2.0282787236 -0.3405223253 0.179938943
C 1.3517474545 0.4152194244 -0.6429171627
N 0.7900133476 1.1312429979 -1.4503023033
H -2.8409700505 0.6108360931 0.3915993371
H -0.2121893793 1.2331313716 -1.2986024378
H -1.1878626741 0.7269443726 1.2892188596
H 2.146713214 -1.3940207004 -0.0283864857
H 2.4791977103 0.0877640548 1.0631777396
