12
0
N -2.7810621311 -0.2416155907 -1.8099156615
C -1.9440788641 0.2808268719 -1.2198126902
C -0.9216694198 0.9390379984 -0.4765503973
C 0.2880936054 0.4108021751 -0.3700958314
C 1.2339765513 -0.6657747396 -0.5470581057
N 1.5319553707 0.6028636613 0.1692997353
H -0.5680900544 -0.7371058255 2.1730497928
H -1.16285011 1.8842041536 -0.0078245584
H -0.0465960214 -0.9109442058 2.6779220027
H 1.7712816086 -0.788442071 -1.4789738222
H 1.068728602 -1.5692240481 0.0314491203
H 1.5980008628 0.5560956204 1.1787394158
