18
0
C -1.8860504349 0.0513295244 -0.1746291948
C -0.8519683749 0.4226431082 0.8861204587
C 0.1452760391 1.4188881848 0.3801367526
C 0.3581076899 2.6175788615 0.9009168753
C 2.000990879 -1.6780427251 -0.7329263535
C 0.9140916697 -2.3429684538 -1.0860246423
H -2.4635923257 0.9267136772 -0.4781619775
H -1.4003036321 -0.352992505 -1.0658326927
H -2.5825664438 -0.702294514 0.1977483984
H -1.34685765 0.8196683259 1.7764691137
H -0.3209745917 -0.4833293221 1.1980050303
H 0.7164668354 1.1096977698 -0.4935344459
H 1.0901730679 3.2977512443 0.482435579
H -0.1933581396 2.9634218586 1.7696161098
H 2.2038008352 -1.4262630284 0.3020394222
H 2.7346024549 -1.3582784107 -1.4641579601
H 0.1809254905 -2.6641246273 -0.3546332725
H 0.7108236311 -2.5935059682 -2.1210282002
