15
0
O 2.0921972645 0.8712290104 -0.3736735267
C 0.8208029857 0.4086266116 -0.1050185822
C 0.5501940628 -1.1287169554 0.0763531715
C -0.8843470959 -0.7269836043 -0.2994186072
C -1.2074793358 0.1858106782 0.8885170405
C 0.0460130285 1.0092452354 0.9768194586
C -0.2681247992 0.3164488486 -1.2452443655
H 2.2618870163 1.5899703089 0.2425423741
H 0.7319415038 -1.5699155585 1.0574635475
H 1.077494427 -1.6792521522 -0.7023933144
H -1.61809453 -1.4542251047 -0.6375543358
H -2.0727409456 0.8435839256 0.7544208379
H -1.3642885604 -0.3280869985 1.8438001022
H -0.8434759326 1.2114982847 -1.4861685358
H 0.1933219112 -0.1017205296 -2.1395142648
