16
0
C -0.6252188975 2.1281313156 0.0794213909
C -0.371443795 0.6688674438 0.0668356899
C 0.7544895355 -0.0244989964 -0.5787178357
C 0.896351859 -1.2867462534 0.3244398475
C 1.9394439524 -1.9405443627 0.7904179309
C -0.549663317 -1.5424037843 0.7344807633
N -1.1003939525 -0.1767109092 0.7266868798
H 0.2494503584 2.6282405242 0.5017116609
H -1.5052358106 2.3976425162 0.6636114498
H -0.7419161931 2.4960486627 -0.9412322794
H 1.6454961362 0.5977713498 -0.6678826099
H 0.4456032662 -0.3288527734 -1.5888255781
H 2.8974568633 -1.5489227781 0.4139454326
H -1.1107916671 -2.1421176262 0.0091352332
H -0.6363258387 -1.9896828082 1.7242434384
H -1.9011074996 0.1082414796 1.2696855859
