11
0
N -1.7750069945 -0.1261786914 0.2115634087
C -0.4318685742 -0.1360806132 -0.2936917335
C 0.5815524432 -1.1886332931 -0.0068804148
C 1.7193538218 -0.4057708735 0.1953896865
N 1.5022091344 0.9361415617 0.185387389
N 0.2638956623 1.1300443043 -0.0319099907
H -1.7901359728 -0.4984444103 1.152014086
H -2.36257801 -0.7234480492 -0.351441909
H -0.444451819 -0.2103051578 -1.3975925958
H 2.7286088465 -0.7300606645 0.4040887807
H -0.1029205377 2.0657208869 -0.1129637067
