17
0
C -2.6170186164 -1.7033997607 -0.1511474919
C -1.2023419157 -1.3282728635 -0.0357526155
C 1.2843174332 0.2262134717 -0.2800935916
C 2.506142043 0.9579770334 0.2212299306
O 2.3365547823 2.3576313816 0.1843295924
C -1.0412881631 0.1023304462 0.1677778237
O 0.2097018678 0.584087224 0.5696222292
H -2.7809091741 -2.529565325 -0.843820855
H -2.7928932772 -2.1423729247 0.8457616174
H -3.3576819769 -0.9047763341 -0.3030236918
H 1.0590898314 0.5347545505 -1.3114866963
H 1.4407661159 -0.8568033743 -0.2694374196
H 3.3585084225 0.7213108246 -0.4181426156
H 2.739080746 0.6174619148 1.2384454635
H 1.5125557118 2.547872613 0.6404076592
H -1.7849820224 0.5511564092 0.8413834747
H -1.3020278082 0.4732147132 -0.8538468134
