15
0
C -1.0364472926 -0.0429155121 0.6696340146
C -0.2514503363 -0.4735160098 -0.5005082597
C -0.8863773564 -0.6086907757 -1.8559635621
N -0.0388965622 0.8515801232 0.0765300419
C 2.0794683099 0.4767728583 1.6781158887
O 1.9397365357 -0.6679079402 2.0134212695
H -2.0845492558 0.1923025973 0.518658133
H 1.6513472544 1.3146254768 2.2553051524
H -0.779109348 -0.4180253863 1.6534785955
H 0.5770404265 -1.1483665341 -0.3050283595
H -0.1683575207 -0.3862175264 -2.6484494782
H -1.7346469318 0.0725519585 -1.962947254
H -1.2516794891 -1.6256400189 -2.0113340928
H -0.4862436596 1.5633657162 -0.4886115317
H 2.674543226 0.7602969734 0.7924384424
