9
0
O -0.8951711481 1.6405421342 -0.6817537624
C -0.2929786512 0.5783959394 -0.2311268538
C 1.1256969575 0.6456283971 -0.2819142479
C 2.3280885895 0.5743900212 -0.268871144
C -1.8572069684 -2.1045032057 0.963922949
N -2.3437065679 -3.0521450357 1.3842148479
H -0.2909020831 2.3371441354 -0.9924452895
H -1.3902436203 -1.2079543163 0.5655088274
H 3.3918264921 0.5045429304 -0.2543033265
