10
0
O -1.746108198 2.8807056719 0.0196194534
C -2.0110863079 1.805366697 0.2071588671
C -0.7546493983 -1.3546868409 -0.0715059811
N 0.2378497406 -1.1066091495 -0.8083308842
C 1.2952841035 -0.3699848265 -0.2686842562
N 1.1149890593 0.7418248264 0.3041559605
H -0.7941155046 -1.0622918909 0.9812114308
H -1.6117176917 -1.8745747045 -0.4936599389
H 2.2715712813 -0.8260856194 -0.4528876818
H 2.0025469157 1.1509658365 0.5814410304
