18
0
C 2.5786255388 -1.6680728379 0.5749460591
C 1.7152310597 -0.6899344219 0.7883645277
C -1.3185182441 1.1628635489 -0.1078428216
C -0.952610422 2.3145401951 0.733832665
C -1.8714802584 -0.2318135385 -0.0720673598
C -1.4307816964 0.5855952199 -1.2520699253
H 3.0392385196 -2.2094882994 1.3934656327
H 2.8598191416 -1.9677529938 -0.4282598834
H 0.2276864957 -1.963299379 -1.7914211591
H 1.43117746 -0.3942404842 1.792303439
H 1.2529576722 -0.1473570818 -0.0293930832
H -0.197615714 2.0233391226 1.4676661226
H -1.8235612953 2.6655168363 1.2919275799
H -0.5620415988 3.1382026186 0.1362360642
H -1.244057502 -1.0510706446 0.2834903986
H -2.9351532057 -0.3858952425 0.1120873002
H -1.3202838139 0.6039843916 -2.3218084934
H 0.3817788631 -2.1095000095 -2.5061120632
