18
0
C -1.0879859671 -0.5729486312 -2.1616943011
C -1.0830900283 0.872804947 1.7630429734
C 0.0362331779 0.5128584223 1.1391525534
C 0.9998256224 1.4976328418 0.5563391181
N 0.3422393662 -0.8572533303 1.0272853535
C 1.3453781912 -1.4723038258 0.3384383822
O 2.2116262783 -0.9473322159 -0.3144645114
H -1.4825029408 -0.2127411793 -3.1105536052
H 0.0010085173 -0.5584179651 -2.1909099951
H -1.4315182195 -1.5930203625 -1.9921085827
H -1.3328588803 1.9171166441 1.8792041859
H -1.7731267718 0.144477431 2.1732400748
H -1.4401451111 0.06797514 -1.3538203209
H 0.6488988579 2.5066252061 0.7659654308
H 1.9973503755 1.3681070919 0.9759675347
H 1.0945107826 1.3645613536 -0.5209048016
H -0.3062093015 -1.4804936879 1.478858326
H 1.2773340512 -2.5700988798 0.4498151852
