9
0
C -1.2720258609 -0.3751305961 0.3133168114
C -0.5236878357 1.6504478054 -0.7368373513
C -0.1567716193 0.5261739132 -0.1829451265
C 1.2186520729 0.1783414342 -0.056610844
C 2.3710412428 -0.1277039433 0.0587263868
H -1.1524126317 -0.540352281 1.383832029
H -1.2252507136 -1.3306394366 -0.2085186853
H -2.2473409165 0.0778466128 0.1334163041
H 3.396157262 -0.3957765085 0.1614854758
