14
0
C 2.6079579613 -0.2057042324 -0.0421136181
C 1.262092706 0.4539810921 0.1804050188
C 0.0911526934 -0.3444003779 -0.1228393548
C -1.1293413947 0.1788751995 0.1382210212
N -2.5094576812 -0.3041022435 -0.1725960886
C -2.1170192434 0.965626039 0.540534344
O 1.1885005581 1.5947841293 0.6074003299
H 2.6552708865 -0.6855833299 -1.0218617037
H 2.7653282494 -0.9811991116 0.7118452017
H 3.3962232215 0.5389094477 0.0462693941
H 0.1737127779 -1.3495341921 -0.5117704001
H -2.9207439548 -1.0500667394 0.3719555101
H -2.7473479116 -0.3264454263 -1.1587991992
H -2.5318528687 1.9378997453 0.3531635448
