14
0
N -0.9677586873 3.2805353823 -0.6243585415
C -0.625658296 2.1836755162 -0.5768182237
C -0.2313876473 0.8200297227 -0.5071910151
C 0.9563042666 0.3085158061 -0.8780832906
C 0.9480422007 -1.1292222074 -0.6394511056
C -0.2390784233 -1.4831410882 -0.1272387308
C -1.1118699367 -0.2794573883 0.0095668017
H 0.8781367064 0.3951972738 2.6583064022
H 1.7843949416 0.8708257247 -1.2861078946
H 0.9163150134 -0.2593510264 2.3026450721
H 1.7773278237 -1.7898200095 -0.8495213709
H -0.5467580468 -2.4805487138 0.1534605769
H -2.0373484416 -0.3676406385 -0.5687106323
H -1.4074464732 -0.1027213534 1.0493159524
