12
0
C -2.4754873177 0.7656132045 -0.0317634019
C -1.5148697512 -0.1746652043 -0.6971275901
C -0.2581018944 -0.3054711267 -0.3662496356
C 0.9668129596 -0.4269079496 -0.0387687451
C 2.1915677478 -0.5470958301 0.288068512
C 3.4462975171 -0.6696956424 0.6248574011
H -3.3255769026 0.217837786 0.381695864
H -1.9926854299 1.3163942009 0.7738955076
H -2.8726360269 1.4820685452 -0.7548329265
H -1.8919098259 -0.786835561 -1.5131031063
H 3.7556025477 -1.3891120535 1.3746888453
H 4.2123083762 -0.057361369 0.1625232756
