14
0
C -2.2807984074 -0.214662471 -0.3081686108
C -0.8438927103 -0.5987924231 -0.051212518
N -0.0332886162 0.3952649443 0.4101825208
O -0.4323808242 -1.7252370213 -0.2362265685
C 1.3577211217 0.1568105609 0.6979327199
C 2.2544731777 0.3482846179 -0.5094252167
O 3.4175696981 0.6217128653 -0.4297869139
H -2.9195227273 -0.8366361762 0.3185527042
H -2.4951273013 0.8351516551 -0.1080565906
H -2.5189548033 -0.4393128784 -1.3473820547
H -0.4055094015 1.3199710863 0.5218789707
H 1.702574392 0.8010501749 1.5068796229
H 1.4691942669 -0.8831867668 1.0173942869
H 1.7527461352 0.2078168322 -1.4895703526
