10
0
O 2.2975276972 -0.7019044925 -0.061919135
C 1.1084144209 -0.416685638 -0.027717981
C -0.0948469579 -1.1412129158 0.0637155446
N -1.1410107687 -0.2398057151 0.0568038336
C -0.7024129113 1.0002075617 -0.0319576394
N 0.63081858 0.9411035672 -0.0840726669
H 1.2526936104 1.7267562704 -0.1559253532
H -0.2547601387 -2.2007880893 0.1300412902
H -2.1123389856 -0.4860414824 0.1134689704
H -1.314850546 1.8840789339 -0.0549078631
