13
0
C -2.1332896421 -0.8189081894 -0.3516704681
N -1.2083730011 0.0660097588 0.3311297036
C -0.0400245026 0.3903654232 -0.3696305957
C 1.1687387274 0.4042261762 0.1511444666
C 2.5670713548 0.6624356797 0.2587633629
O 1.7579806813 0.146042725 1.3559119071
H -3.0305858988 -0.9411905744 0.2554177364
H -2.4363934775 -0.3652298245 -1.2977615308
H -1.006864548 -0.2403194429 1.2710732622
H -0.1688197812 0.6952915557 -1.4008323436
H -1.7170316535 -1.8116906424 -0.5697623932
H 3.2862604119 -0.0477767927 -0.1373738905
H 2.9282513294 1.6753111477 0.408992783
