19
0
C 2.0145619906 -0.0968638074 0.5387773254
C 0.6851898825 -0.3233977613 -0.1596046314
O -0.1649102088 -1.0354756738 0.7258238799
C 0.0544510233 0.9880780826 -0.5859337394
C -1.4292187718 1.1668177211 -0.6719551799
C -0.6515183747 1.8471405668 0.416754443
C -0.8066828002 -2.1447239943 0.152936891
H 2.6947594064 0.470882946 -0.0993457822
H 2.4835148088 -1.048688301 0.7915107281
H 1.8571124059 0.4666659852 1.459945296
H 0.8529082161 -0.9339561449 -1.0574139405
H -0.7625932518 1.4446593996 1.4154233501
H 0.637451767 1.5138440439 -1.3350801727
H -2.0584740494 0.3390535363 -0.3742303417
H -1.8236575431 1.7682994553 -1.4803777028
H -0.5149488367 2.9192191312 0.3653705759
H -0.083283772 -2.9089348942 -0.158895315
H -1.41519887 -1.8677445506 -0.7167193351
H -1.459260022 -2.5705267404 0.9149406513
