11
0
N 2.4329162167 0.7189199644 0.425940041
C 1.664030021 -0.0638539568 0.0720340723
C 0.8031544398 -1.0652956477 -0.4108896615
O -0.4588815142 -1.1438641151 -0.1315647154
C -1.2727580056 -0.4083581621 0.5560452206
C -0.8962853602 0.7443839402 1.2680539996
N -0.6685541788 1.6956983245 1.8782187968
H 1.1616408736 -1.8657663162 -1.0357824814
H -0.2985186818 0.872573425 -2.0982648782
H -0.92029864 1.147277102 -1.7878617894
H -2.2859511708 -0.7734635581 0.5678123956
