13
0
C -0.7393367637 0.0643590605 1.0096385707
C -0.9583289891 -0.9498979864 -0.2052508823
O -1.2854126209 0.2060932115 -1.022272428
C -0.3254601969 0.9045357519 -0.2076669806
C 0.9542706979 0.1513327396 -0.6109709776
O 2.1123116456 0.5575929293 0.0627076312
C 0.4739179293 -1.2312196885 -0.2579690754
H -1.7143944825 0.2962336023 1.433412651
H 0.0034921333 -0.1290216597 1.7823679958
H -1.7161476262 -1.7253242171 -0.1857370783
H -0.3762141026 1.9886757162 -0.2699744503
H 1.0700772245 0.1984181377 -1.7063624043
H 2.5815241513 -0.2389095972 0.3265554282
