17
0
O 2.0162405211 -0.4547342653 0.9053464607
C 1.6264387762 -0.7300071343 -0.1956505169
C 0.5511688402 0.0072394268 -0.9549063404
C -0.1158490449 1.1353461494 -0.1647573073
C -1.4328445003 0.5004302081 0.2601603678
O -1.7982946813 -0.3253132835 -0.8311049073
C -0.6249929302 -0.954727364 -1.2902757455
H 0.7235312691 0.2384608717 3.1005100214
H 1.0149803997 0.368671976 -1.8767138575
H 2.0574356011 -1.6007738825 -0.7343892468
H 0.2231439931 0.4077232924 3.6275919369
H 0.4957988718 1.4537916971 0.678375715
H -0.3034215497 1.9924570241 -0.8115065821
H -2.2387336804 1.2139922876 0.4266176517
H -1.3008064199 -0.1011392679 1.1698530001
H -0.7355934487 -1.1406204296 -2.3585042096
H -0.4907120169 -1.9230943062 -0.7864284402
