14
0
C -1.3704879741 1.3488134704 1.5941161425
N -0.9670364867 0.6083715594 0.6619684285
C -1.596184432 -0.6796860129 0.4703395993
C 2.6828654258 -1.1987033872 -1.4924149856
C 2.0424401618 -0.0859393514 -1.2311888097
N 1.5068774725 0.9826712572 -1.0304294759
H -0.901325605 2.3185663535 1.7456897718
H 0.6403478068 0.9569705006 -0.472720924
H -2.1831557534 1.0633090568 2.2722297623
H -0.8335707299 -1.4575460802 0.5370489563
H -2.0132387246 -0.7220092836 -0.5372261147
H -2.3891109499 -0.8844382538 1.1996239505
H 2.4524345021 -1.7602218167 -2.3857214286
H 3.4479792866 -1.5529980121 -0.8174928729
