15
0
C -1.7518666846 0.8407230078 1.3043151842
C -0.8400794975 -1.0477394706 -1.489599156
O 0.1090888316 -0.2407461882 -1.4306172318
C 1.096284908 -0.4977087682 -0.3403094992
O 0.8943417179 -1.477737899 0.3700727725
C 2.0131323148 0.493811519 -0.4104277804
O 3.0426264008 0.5516932116 0.4629188997
H -1.8166387564 1.4518762584 2.2031256484
H -2.7282865388 0.4021688851 1.0990367852
H -1.0160517461 0.0511088546 1.4564223092
H -1.5779040451 -0.874863211 -2.2645084551
H -0.873356513 -1.8633425343 -0.7702869079
H 1.983633141 1.2782022197 -1.1486094973
H -1.4469724074 1.4697664818 0.4681210359
H 2.9594218748 -0.1930133664 1.0694028926
