15
0
O 0.7923607389 -0.6901633829 -1.308370756
C 0.5025495127 -1.2974401377 -0.0804887154
C -0.9443261489 -1.2421741076 0.2042912163
C -1.1669555257 0.3225718842 -0.020409156
C 0.1217630433 1.1962424771 -0.0803595768
C 1.3693769363 0.3268273575 -0.4523993797
C 1.4455443834 -0.6896481714 0.6651466072
H -1.572645862 -1.8113396268 -0.4804823898
H -1.1637405275 -1.5367474213 1.229839645
H -1.6986488013 0.4371057977 -0.9631035916
H -1.8230861067 0.6923464297 0.7683631952
H -0.011748912 1.9716960735 -0.8380301497
H 0.3032121756 1.7059525226 0.8684777549
H 2.2152162396 0.8706664943 -0.8804931453
H 1.5071988543 -0.5786141888 1.7373084418
