19
0
C 2.3357690522 0.4281666266 0.9737330376
C 1.6995836515 -0.1750479501 1.9660907014
C -0.835015461 -1.7273865318 -0.5653912777
O -1.2827066198 -2.3026301931 0.5789074688
C -0.6819673232 -0.4168548411 -0.71799153
C -0.2129480194 0.2697639493 -1.954024419
O -1.0621400614 0.3908705605 0.345830356
H 2.4108907647 -0.031619071 -0.0056133788
H -2.3983705013 3.3807502847 -0.5381026868
H 2.8151248164 1.3920927734 1.1030070429
H 1.2286393273 -1.1426490533 1.829496095
H 1.6293146402 0.2726954777 2.9511960898
H -0.6236709603 -2.4374621922 -1.3527936864
H -1.5128557174 -1.5812816926 1.1773785513
H -2.2174444741 2.6743813179 -0.3790217782
H -0.985319604 0.9387073681 -2.3414413102
H 0.6748682933 0.8785186406 -1.7549153089
H 0.0396907151 -0.4553215403 -2.7279092527
H -0.2749485191 0.8217110667 0.700036286
