13
0
C 1.2183704135 0.3252534244 -0.3439027534
C -0.3187895289 0.3340111082 -0.3101874155
C -0.817283512 -1.1086279571 -0.2979248875
O -1.0491466022 -1.6990735898 0.714876534
C -0.8708001586 1.0495659464 -1.4602363295
N -1.2997127391 1.5885677662 -2.3773044593
H 1.5956419914 -0.1792014766 0.5449062361
H 1.5862452991 -0.1936456828 -1.2301086698
H 1.6017095162 1.3443979893 -0.3619903767
H -0.6700195636 0.8121861761 0.606116187
H 0.4360251577 -0.0661981097 3.3110783633
H -0.9079825376 -1.5927478321 -1.2902863075
H 0.0111772642 -0.5060587625 2.8833398788
