10
0
O 1.2220560896 0.7518106851 1.1528339752
C 1.3772035509 -0.0119203587 0.0709084397
C 0.4896446447 -0.6399201503 -0.6978035884
O -0.9015131003 -0.7395977345 -0.580033782
C -1.6743082545 0.1645088908 -0.0092408422
O -1.3298960826 1.1722998354 0.5512061837
H 2.4163173266 -0.1441902903 -0.2100408439
H 0.824645559 -1.2338750002 -1.5325369693
H 0.2940502264 1.0535289915 1.1826191289
H -2.7220279597 -0.1363978686 -0.1209857016
