15
0
O 1.9220877732 1.4738781757 -0.6610095098
C 0.7733154699 0.8661623822 -0.286470789
C 0.4079024608 -1.5987746056 0.0242109888
C -0.8504033316 -0.8487348763 -0.2797538652
C -1.2797206568 0.2632580313 0.6702550215
C -0.1313127212 1.2405452729 0.6189650487
C 0.447420894 -0.4315445133 -0.9256781727
H 1.9971307347 2.3159744772 -0.2058827979
H 0.8743037894 -1.4739235581 0.99414697
H 0.5027618628 -2.5878099978 -0.4057200601
H -1.6076521283 -1.3567925557 -0.8615204657
H -2.2132986065 0.7214985846 0.3284592446
H -1.4646475395 -0.1158185497 1.6803494267
H -0.0564753612 2.1129997295 1.2563159225
H 0.6742703604 -0.5848169966 -1.9723399623
