9
0
C -1.5043002587 -0.0226474099 0.0796958111
O -0.5667464626 -0.9643969329 0.663718414
C 0.7076845835 -0.8850576137 0.5560321883
O 0.9704065507 0.2471342278 -0.2049753941
C 3.3636424566 0.7229145606 -0.6269424562
N 2.2572364137 0.442054816 -0.3911337419
H -2.483929976 -0.3886938688 0.3689389606
H -1.3301816448 0.9729061459 0.4823240059
H -1.3978536624 -0.0164869251 -1.0030107876
