13
0
C 1.8691002136 -0.6750931252 -0.7079019407
C 0.7050802856 0.1095788761 -0.1914751246
C -0.542256253 -0.3331741342 -0.139403319
C -1.7201410831 0.4389368018 0.3797089588
O -1.3979478814 1.6643558585 0.9954015731
H 2.6342725669 -0.7989258032 0.0629633932
H 1.5641168595 -1.6668339467 -1.0452793923
H 2.3450726632 -0.161012103 -1.5469350306
H 0.9124435905 1.1215302796 0.1483811577
H -0.7711132666 -1.3367018896 -0.4941828756
H -0.8193227894 1.4824035738 1.7391995623
H -2.2964146616 -0.2027336707 1.0612937257
H -2.3909162442 0.686999283 -0.4479586877
