10
0
N -1.6227300398 -0.2405295255 0.341947626
C -0.3886885896 0.104035716 -0.1159852886
N 0.5419690732 -0.9651544824 0.1075055625
C 1.8531074483 -0.5560530586 -0.1814856167
N 1.7549350562 -0.4823911799 1.0430542707
N -0.014009514 1.1481936486 -0.7326086373
H -2.3473958749 0.449608995 0.3952655131
H -1.6880148992 -1.0432010427 0.9407405389
H 2.5165208854 -0.4116645994 -1.0196841095
H -0.7628455455 1.8189095287 -0.8687088592
