16
0
C 2.0178959962 0.3036760995 0.4663821482
C 0.5871207689 0.5547615932 0.1592460947
C -0.1059857217 1.5483532321 -0.3966729947
C -1.4422789693 0.85550395 -0.265229244
C -0.6397182924 -0.3095092332 0.3953246226
C -0.68489559 -1.6546366752 -0.3066347359
H 2.3708599565 -0.6021195186 -0.0344255612
H 2.645350703 1.1371887173 0.1484580765
H 2.1638662189 0.1520196308 1.5394434961
H 0.1791727818 2.5139680245 -0.7986286872
H -2.1773403694 1.3401265033 0.3819545938
H -1.9291511013 0.5808074367 -1.204775855
H -0.8789494927 -0.4312522827 1.4572392911
H -1.6713469373 -2.1153321728 -0.2145236375
H -0.4625921342 -1.542226388 -1.3712316507
H 0.0453051828 -2.3490339168 0.1165240433
