10
0
O 1.335404618 -0.4089430606 1.1153555269
C 1.349370149 -0.4428172283 -0.2024438513
C 0.1992537142 0.3191230805 -0.7053890595
C -1.1449143339 -0.188262077 -0.275721083
N -0.6964674338 1.1123549447 0.144763306
H 2.0654474927 -0.9460135336 1.4359075236
H 0.2931537915 0.6686517022 -1.7253542382
H -1.9384312577 -0.203028148 -1.0129053506
H -1.1605352547 -0.9988807572 0.4453031539
H -0.3630534853 1.0720060771 1.1022380722
