15
0
C -1.7965411105 -0.2542946539 -0.6612054057
C -0.7228829042 -0.033238321 0.3682864819
O 1.4087719169 1.3681954131 1.8982241016
C 1.4585241765 1.2493147827 0.7025103621
C 0.3327437942 -1.0557205919 0.6151410769
C 0.6987137901 0.2353312614 -0.0743743455
O 0.9516151373 0.2457469793 -1.4446553208
H -1.4085965973 -0.7910183997 -1.5264007484
H -2.615509671 -0.8346405712 -0.2321633881
H -2.2020861226 0.6954880857 -1.013399547
H -1.0121184827 0.5454530675 1.2388270902
H 2.088471166 1.9146731055 0.077106629
H 0.7052695866 -1.1884554463 1.6225104018
H 0.3274430064 -1.9373902529 -0.0146234893
H 1.7096443143 -0.3127254582 -1.6264778989
