9
0
N -0.9673687037 -0.3269663085 0.8492824508
C -0.3362380387 0.6565284807 -0.028731168
N 1.1137082801 0.6138302033 0.0007787006
C 0.409227688 -0.4485577847 -0.6429843483
O -0.1352260823 -1.3794525882 0.2820948295
H -0.6805001095 -0.2181363634 1.8226082423
H -0.8653505694 1.5333534209 -0.3709530249
H 1.5258205945 0.3588226672 0.8927957514
H 0.6515739412 -0.796789727 -1.6363704332
