17
0
C 2.117147829 -0.3693006114 -1.0184297149
C 1.76683016 -1.8152544375 -0.89895627
O 0.8984818158 -2.2623224775 -0.1914394282
C -1.2105432819 0.4635654066 0.7046771251
C -1.6376112601 1.6649526643 1.4826881074
C -1.5757133316 0.2047081322 -0.5508230773
O -0.398587917 -0.3297193773 1.4405676409
H 1.9670053443 -0.0568771674 -2.0554541616
H 3.1798824947 -0.2382047884 -0.7992035087
H 1.5118288896 0.2464942262 -0.356692122
H -0.7629221122 2.2367442103 1.8000511829
H -2.1668127645 1.3518494709 2.3849826654
H -2.2887355824 2.3053724861 0.8910889123
H -1.257555807 -0.6968975887 -1.0594625692
H 2.3635329503 -2.508808602 -1.5226595072
H -2.2262149985 0.8850471981 -1.0804730745
H -0.0845444288 -1.0805177447 0.9079077995
