14
0
O 1.5107743069 -0.9467648684 -1.0855835753
C 1.127988155 -0.2317016304 0.0649583606
C 0.6562005177 1.2162441281 -0.2195851655
C -0.8041003296 1.0298198354 -0.2849117216
C -1.1928961781 -0.4408980338 -0.4775290376
C -0.194498043 -0.6658858414 0.6591009417
N -0.5923127678 0.6993383092 1.1719310211
H 2.2909131636 -0.5262137813 -1.4546375377
H 1.9290985471 -0.2415379919 0.8128332119
H 0.0779520887 1.2509403066 1.7124831829
H -1.4510370336 1.86229873 -0.5394011347
H -0.9712934953 -0.9037916371 -1.4349779946
H -2.2179814851 -0.6252990963 -0.159092521
H -0.2679604465 -1.5135384286 1.3362989701
