13
0
O 2.3865835794 1.0282832461 -1.595842798
C 2.115205284 0.4777233186 -0.537530625
C 0.8135846898 0.1059467798 -0.152709691
O 0.6324518562 -0.408751483 1.0818431772
C -0.5861569928 -0.6722555649 1.3595977884
C -1.463370499 -0.4468524091 0.175726313
C -0.5335110402 0.3676353355 -0.7543502374
H 2.9030169429 0.2204791311 0.200415253
H -0.5979695015 0.0591664648 -1.7957871684
H -0.7885482299 -1.1092145354 2.3250142042
H -1.7278529172 -1.421101428 -0.2582706982
H -2.3981169743 0.0548015056 0.4239820849
H -0.7672831974 1.4385116388 -0.7187086027
