21
0
C -1.707785635 1.1019050776 -0.1323773057
C -1.6705816153 -0.4175970016 -0.0269083032
C -0.2837809525 -0.9940915825 -0.1781265565
C 0.058124475 -2.3050559065 0.4547004467
C 0.6458875193 -1.0394365842 1.006909188
O 1.7583699294 1.8317381088 -0.3526421162
C 2.0194882402 1.5242696518 -1.7025618456
H -2.7288611943 1.4795178134 -0.056698798
H -1.2991566322 1.4440816674 -1.0863684015
H -1.1224095929 1.5703892557 0.6621043665
H -2.0774942209 -0.7305876968 0.9403588824
H -2.3231499674 -0.857252769 -0.7876733519
H 0.1813665366 -0.8051974874 -1.1419174748
H 1.1879222584 1.1483692094 0.0083054157
H 0.7157438988 -2.9788837641 -0.0780379218
H -0.7137957515 -2.7972368293 1.0331722924
H 0.2646792276 -0.6763000247 1.9540040881
H 1.704653989 -0.8672497233 0.8575862902
H 2.6924427334 2.2910200737 -2.0855758984
H 1.1081190738 1.53199465 -2.3128727849
H 2.5102966807 0.5502548613 -1.8183692114
