17
0
C -1.448145488 -0.0363416572 -0.7211476888
C -2.4069052603 0.9225482736 -0.0865123158
C -0.2263370003 -0.2872328105 -0.2824521082
C 0.8519111993 -1.2809824938 -0.7009206863
C 1.6751941365 -0.8134252928 0.5022683588
C 1.9210119117 0.6516433531 0.4146915932
C 0.574625047 0.1746727234 0.8903486752
H -1.7925964436 -0.5654847842 -1.6064326981
H -3.3141692902 0.4143124894 0.2518594785
H -2.7193933759 1.6923265483 -0.7971258617
H -1.9596306213 1.4223561491 0.7737544537
H 0.5051702336 -2.3110488829 -0.6060649478
H 1.3137433271 -1.1478806452 -1.6823019007
H 2.249692873 -1.4551609483 1.1550406493
H 2.0086921192 1.1351176031 -0.5527015306
H 2.5541981704 1.068487835 1.1880880002
H 0.2009924614 0.4278875397 1.873256529
