17
0
C 2.2664667054 0.4511340093 -0.4195298602
C 1.1145696686 -0.524045924 -0.296076355
C 0.1798746919 -0.1191505211 0.8316446049
O -0.8925638978 -1.09370174 0.8983208339
C -2.1409111449 -0.906446202 0.5835222042
C -2.4951578749 0.4969831831 0.1743969993
O 0.4262242708 -0.5358146772 -1.5326525404
H 2.9386946873 0.1347562203 -1.2162316283
H 2.8330866536 0.5062023627 0.5114929897
H 1.8949709975 1.4481506898 -0.6646401657
H 1.5003618849 -1.5276884047 -0.0759640945
H -0.1988091608 0.8883092032 0.6718154862
H 0.6860457443 -0.1716744147 1.7959887235
H -0.1842536136 -1.2772308703 -1.5377621494
H -1.9225265661 0.8071312847 -0.7075943056
H -3.5554481753 0.5399822896 -0.0618648236
H -2.2903428709 1.2156525114 0.9769580811
