16
0
C 1.7029141958 -0.2918688522 -0.7404906653
C 0.7071748472 0.8034218562 -0.4888913079
N 1.1280545569 1.9658464584 -0.2128839157
O -0.2390270173 -1.3438654137 2.3819945273
C -0.880823974 -0.5929608857 1.701738902
C -1.1554250551 -0.7934210082 0.2355079818
C -0.7596637537 0.4346620201 -0.5928053075
H 1.6808166356 -1.0195321602 0.0750890775
H 1.4711269847 -0.8301311664 -1.6632252669
H 2.7022576482 0.131827118 -0.803889205
H 0.3523668649 2.6071536561 -0.0516098679
H -1.3171423527 0.3300225836 2.1421422956
H -0.6427374614 -1.6961867499 -0.0975860141
H -2.2321124614 -0.9602231514 0.12335342
H -0.9892350204 0.2303138868 -1.6430505878
H -1.3655006373 1.2963468087 -0.2989850661
