13
0
N 1.1248441198 -0.1509120124 -0.1217176355
C 1.8053205853 0.9886955526 0.1588186903
O 1.4238477437 2.106106898 -0.0901239983
C -0.1135061231 -0.1543303865 -0.8353434924
C -1.1675567261 -1.1262996158 -0.4044384085
C -1.3409966129 0.3391681873 -0.1416448063
H 1.5936622176 -1.0258932043 0.0362551576
H 2.7687103486 0.7861614737 0.6627220591
H -0.0293298036 0.0591395646 -1.8954077095
H -1.7653825082 -1.594518834 -1.1744946761
H -0.9416149128 -1.7634346784 0.4412436683
H -1.2168097046 0.6884307089 0.8738565406
H -2.0571336236 0.8950763464 -0.7303553891
