14
0
C -1.1623814023 -0.3332457017 0.7878555959
C -0.5192179982 0.8711269973 0.1245774603
C 0.8910217877 0.4671110779 -0.2098599097
C 1.0468820236 -0.9671269453 0.2636752786
C -0.2586580531 -1.5123052139 0.7215239588
C -0.1109004579 0.6768940852 -1.3050117958
H -2.1681032357 -0.588391082 0.4389857056
H -1.2884125441 -0.1964911379 1.8752327265
H -0.7549258797 1.8707136414 0.4661859908
H 1.715316673 1.1622500095 -0.1166819571
H 1.5353245773 -1.6499414974 -0.4386759192
H 1.6623538147 -1.0426651318 1.1760522338
H -0.4861510814 -0.1936562472 -1.8339224499
H -0.0050132236 1.5601861459 -1.9206609185
