20
0
C -0.6840530343 3.0197492588 0.3037114028
C -0.5846752747 1.5198166113 0.5455319721
N -0.403543077 -1.4635711916 -1.0557177634
C -0.3633039233 -2.8934773916 -0.8577602201
C 0.2783186829 -0.686635492 -0.3258419687
C 1.1929663551 -1.1140880434 0.8041213223
C 0.1656010387 0.794952102 -0.5738729055
H -1.2030952905 3.232223894 -0.6337704646
H -1.2298945368 3.5172692578 1.1073089763
H 0.3073226471 3.4758091151 0.2432117975
H -0.0907714244 1.3377208726 1.505567053
H 0.1397602393 -3.3542153502 -1.7121196588
H 0.1319350072 -3.2327248442 0.0581691358
H -1.3866851757 -3.2736163194 -0.8550692887
H 1.7157591368 -0.2570996727 1.2269010539
H 0.6319760339 -1.5937769987 1.6092013204
H 1.9405450442 -1.8287770082 0.4555852849
H -1.5867582913 1.0885716687 0.6282372266
H -0.3529258129 0.9378954837 -1.5230752648
H 1.1703636558 1.2237960478 -0.6700330111
