15
0
O 2.6465259207 0.2912223955 -1.1554986683
C 1.4126054507 -0.0579159525 -0.7527629313
C 0.9607941357 -0.8647433733 0.43158473
C -0.4773951269 -0.6351767185 -0.159470786
C -1.4430685167 0.0537755505 0.7512280663
C -1.8379470337 1.3125183599 0.6377773777
C 0.2004003369 0.1593076412 -1.2574918637
H 3.2912287979 -0.0268371097 -0.5212835322
H 1.1182163143 -0.4010587221 1.4080848313
H 1.2918750455 -1.9059041622 0.4573403785
H -0.913837619 -1.5800065222 -0.5012924769
H -1.4720228729 1.9493555299 -0.160210167
H -1.8348088824 -0.5533879742 1.5653622919
H -2.5385173638 1.7500101755 1.3385695894
H -0.1740395864 0.6740088823 -2.1303808396
