10
0
C 0.0566140985 -0.7775311341 -0.4331311506
C -0.2223343006 0.5447010366 0.2120797164
N 0.9928439534 1.3533198419 0.1298107917
C 1.8091144885 0.6150580248 -0.4565672748
O 1.3088011208 -0.6657813716 -0.8165092418
H -3.0737607746 -1.8514774774 0.8729051465
H -2.4262080769 -1.8556925026 0.5002713546
H -1.0650555544 1.0353910612 -0.285535614
H -0.5300884029 0.3935219365 1.2519701008
H 2.837539448 0.8035055846 -0.7303288288
