11
0
N 2.3155541175 0.4475517788 0.3142475946
C 1.0928980755 0.162819965 0.1988986578
N 0.6605194122 -1.1387742256 -0.1713118817
N -0.7079026649 -1.0033857425 -0.4979605654
C -1.0249067295 0.2388304658 -0.0134538936
O -2.3048722495 0.5654282537 0.0183504023
N -0.0435939011 0.9699395866 0.365629832
H 2.4188126858 1.4220155096 0.5735009681
H 1.1951362455 -1.5232208087 -0.9371672655
H -1.284150415 -1.7614359341 -0.1570088922
H -2.3701775766 1.4486461511 0.3990530435
