19
0
C 2.577299225 -0.1752419956 0.2042577865
C 1.6136538513 -0.7250107221 -0.8465704344
C 0.1845215072 -0.6267247736 -0.4096150362
O -0.7307534754 1.3825305589 2.2579638746
C -0.7388464531 0.1132368504 -1.0048614448
C -2.1603615392 0.2481689827 -0.5628792439
O -2.3689661718 -0.4514625493 0.6526718266
H 3.6159911242 -0.3102387029 -0.1021858502
H 2.4105116236 0.8925346947 0.3637128222
H 2.4437296321 -0.6787624491 1.1643802623
H 1.8558115141 -1.7752008914 -1.0398490477
H 1.7481579669 -0.1926752327 -1.7920641812
H -0.093411278 -1.1966495018 0.4736652116
H -1.2764942491 0.6694330994 1.9016786021
H -0.4834505025 0.6898263191 -1.8912326066
H 0.0012106137 1.4385250162 1.64111914
H -2.8234451881 -0.1408356379 -1.3465648585
H -2.3941681916 1.3134299278 -0.4344493769
H -3.298550009 -0.4056539929 0.8804035546
