13
0
O -2.8087992281 -0.7210954078 0.1176158321
C -1.6671457785 -0.4061440039 0.000194518
C -0.9084571401 0.9092440473 0.1626126006
C 0.3849507171 0.0757456734 0.2027369991
C 2.6097297674 0.7606562268 -0.403575884
O 1.3864732727 0.5220077979 -0.7315664607
C -0.3764085149 -1.1784323283 -0.262337069
H -1.1552412053 1.5294274697 1.0225285761
H -0.9615819769 1.5080692796 -0.7497273865
H 2.6987733461 0.5546771261 0.699620265
H 0.8486581453 -0.0062772172 1.1877109505
H -0.2323097095 -1.3534703238 -1.3311510815
H -0.2299456949 -2.1086313399 0.2837971403
