14
0
C -1.8448680116 -0.1615216438 0.2423873551
C -0.3813967264 -0.3721345225 0.0895028062
N 0.3162524067 -1.4164267655 0.8010877399
C 0.9089917892 -0.1427269598 1.1731795683
C 1.8518809472 0.1442314966 -0.0453624309
C 0.5274604998 0.3694988329 -0.6475220253
O 0.2620609158 1.5008253995 -1.2996610718
H -2.1423089761 0.8714560326 0.0426852574
H -2.1189738587 -0.3986655115 1.2689303197
H -2.4076898995 -0.8200554468 -0.4225472229
H 0.8812158925 -1.9620803759 0.146308811
H -0.6835276738 1.6840680683 -1.2824508802
H 2.4293551416 -0.7219188137 -0.3637649866
H 2.4466155533 1.0534452098 -0.0241332397
