10
0
C -2.1429254763 -0.2667964668 -0.2914936332
N -0.9287328893 -0.6651900249 0.3977268433
N 3.1551751124 1.0669906398 0.7957938559
C 2.1501931376 0.3968112867 0.7447202445
N 1.1500716433 -0.3054070373 0.8733398034
N -0.0077252202 0.1098608105 0.1867303532
H -2.4431086585 -1.0900397449 -0.9415547379
H -2.015592216 0.6508331859 -0.8693661321
H -2.9246651543 -0.1389591897 0.4588319988
H 3.892479721 0.9388005408 0.118387404
