14
0
O 1.1815654277 -2.7722797975 0.1869543104
C -0.2130062552 0.8689575849 -0.9282053716
C -1.3027196987 1.3887468931 -0.0276377057
C -0.9029730662 -0.039274107 0.0446428593
O 0.267051507 -0.189836298 0.8523788209
C 1.0274815347 0.6053071536 -0.0984612584
H 1.463109416 -3.3274895187 0.9139118101
H -0.2610035363 0.9015991198 -2.0057415248
H -2.2461275437 1.5816393456 -0.5230400902
H -1.0652399861 2.0492737591 0.7990590865
H 0.8739068695 -1.9471319909 0.5918955242
H -1.5471735725 -0.8984622439 -0.0814269476
H 1.5121694747 1.4595795977 0.380157825
H 1.7639474291 -0.0240834977 -0.6007833381
