10
0
C -0.9857732364 -0.2772450488 0.6023403311
C -0.0388166281 -0.8778777508 -0.4276821804
C 2.1239154991 2.0810099152 -0.8224160968
O 2.0282769092 2.2143313832 0.2890761799
H -0.5834643704 0.6469608624 1.0219124646
H -1.1585410484 -0.9662755308 1.431210754
H -1.9565800622 -0.043548202 0.1609784875
H 0.9352151325 -1.1039440202 0.0112855985
H -0.4369162907 -1.8071395734 -0.8396410989
H 0.1268900956 -0.1946040347 -1.2632984398
