10
0
O -0.8197269876 1.7247687377 0.4493490178
C -0.9848208952 -0.7523294144 0.3582937081
C -0.1763391764 0.4972727351 0.6199628288
C 1.0596347326 0.3010778406 -0.2127422726
N 1.1091182308 -0.8641760505 -0.7137320283
N -0.1401512006 -1.4541948117 -0.3337427272
H -1.7515126727 1.5808548465 0.6355437298
H 0.1575927847 0.35490022 1.6698189147
H 1.8752069573 0.9989285591 -0.343419211
H -0.288555773 -2.3892556625 -0.6785409602
