12
0
O 1.6447446233 1.2652167581 -0.0651311531
C 2.6400353441 0.3892704118 0.0455558334
O 2.5129370059 -0.7891993423 0.2141181921
C -0.8399468817 -0.8611130188 0.2157721068
C -2.0638033533 -0.4626909472 -0.5565978931
C -1.4584038358 0.1812782246 0.6548279874
H 3.6073442142 0.9026801257 -0.0393333114
H -0.0275710072 -1.5626093763 0.3036375008
H -1.9588283028 0.0107332237 -1.5309037025
H -2.9737696097 -1.0497871366 -0.4481980135
H 0.7989471664 0.7879352627 0.0175460264
H -1.5549953633 0.9669648144 1.3839624267
