13
0
O 1.6484611129 -2.0899715636 -1.2107329672
C 1.045167025 -1.0545708721 -1.1810781023
C -0.3121797541 0.2857416204 0.4270670449
C -0.1991389935 0.1964133064 1.7489131188
C -0.3004953897 -0.8907967003 -0.5069979881
C -0.4429215475 1.6357322608 -0.1703615949
O -0.5363013547 1.8380317632 -1.3528891836
H 1.450821817 -0.1421777098 -1.6606057028
H -0.1011016912 -0.75556699 2.2567754727
H -0.2067029589 1.0885940265 2.3658719669
H -1.0337556078 -0.7168705861 -1.3014430869
H -0.5451007635 -1.8182118189 0.0091281404
H -0.4520338942 2.4721462634 0.556638882
