19
0
C 1.6800497047 0.6942524009 -0.5163777253
C 1.4571122896 -0.6177441901 0.234146304
C 0.0048176981 -0.9704143995 0.4176579486
C -0.5240173613 -2.0718167742 -0.0972903072
C -0.8236344216 0.0062928574 1.213211742
C -1.359351358 1.1580666168 0.4150361232
O -1.4808504138 2.1802129572 1.2282164249
H 1.2746598412 1.5494495936 0.0293100732
H 1.1972357286 0.6703276429 -1.4944212839
H 2.7461260011 0.8769105707 -0.6620932665
H 1.9301936706 -0.5512471674 1.2209077637
H 1.9545597472 -1.4335841708 -0.2946525368
H 0.0708130454 -2.759485592 -0.6872877506
H -1.5704381125 -2.3191711531 0.0406318487
H -1.3138708048 0.3878041205 -3.1484683873
H -0.3047220288 0.3410520784 2.1210885707
H -1.7498924377 -0.4906992498 1.535970462
H -1.4063458406 0.5248671821 -2.4186856157
H -1.8729269472 2.9091596766 0.7357876123
