15
0
O 1.5967308095 0.5533715465 1.3080278062
C 1.2038254524 1.21027743 0.1225311787
C 1.0335467593 0.2671960132 -1.0580393078
C -0.1209759069 -0.6931299605 -0.9315055601
O -1.5740169887 -1.4335421768 2.1991313073
C -0.9717347383 -0.7120405801 0.0545653743
C -1.8019885381 -0.7060069641 1.0593472946
H 0.8869713863 -0.0349418966 1.5788020103
H 1.9961599902 1.9269833385 -0.0994156716
H 0.2777166639 1.7795514514 0.2776230642
H 1.9539000264 -0.3106137743 -1.1899338384
H 0.9037865578 0.8539275355 -1.974433773
H -0.2321158436 -1.4261753853 -1.7282922607
H -2.2890616422 -1.2810201709 2.8175405476
H -2.713068988 -0.1157244063 1.0327728281
