19
0
C 2.0506424214 -1.8379043068 0.2933460159
C 0.9394110204 1.7312945429 -1.5824906434
C 0.2593734372 1.318481494 -0.5243003441
C -1.2358668857 1.2326894976 -0.4559837884
C -1.7362758569 -0.198802466 -0.2834468969
C -1.4604471227 -0.8097058822 1.0619447411
O -0.9802901191 -0.2285074606 1.9968156278
H 1.5402156519 -1.5593898813 1.2142365091
H 2.4983984219 -2.8241373256 0.4065716748
H 2.8286473087 -1.1075064391 0.0764461856
H 2.0221689136 1.7659843012 -1.5806584556
H 0.4391574905 2.057491958 -2.4891281755
H 0.7942345504 1.0036676085 0.3673213672
H -1.594436404 1.8308995489 0.386422717
H -1.6685524169 1.6555272508 -1.3654720764
H -1.31059998 -0.8652315409 -1.0423839845
H -2.8227517612 -0.25699682 -0.425381611
H -1.7492437264 -1.8775927953 1.1577352166
H 1.3399670567 -1.8525462842 -0.5324290793
