12
0
C -1.4840501691 -0.328525172 -0.3265177396
N -0.218405213 -0.2231906652 0.4308308734
C 0.8600791117 -1.1801615606 -0.0983910519
C 1.8559190451 -0.2905629892 -0.2979976392
N 1.5701640372 1.0770755524 0.0062833353
C 0.3841491717 1.1186893081 0.4221567443
H -1.2754784535 -0.0660577435 -1.3613415193
H -1.8215053827 -1.3603705871 -0.2803695063
H -2.2311400298 0.3455336519 0.0931253784
H -0.3788956744 -0.5242559437 1.3922268809
H 2.8408726374 -0.5197035489 -0.6755952319
H -0.1820990807 1.983687698 0.7411184757
