11
0
O 2.2674569013 -1.0862716306 -0.4248040221
C 1.2344562559 -0.5826834107 -0.1419423268
O 0.1602589433 -1.4429486405 0.1447468195
C -1.0781853749 -0.9684031547 0.1253904696
C -1.4316641242 0.3256703755 -0.0838253222
C -0.4825139887 1.3726979742 -0.1539729959
C 0.9152852402 0.8780575947 -0.0205463449
H -1.7975916088 -1.7650068565 0.298836313
H -2.4943414646 0.5385720049 -0.1253212121
H 1.6198184473 1.439822705 -0.6366355543
H 1.1838437733 1.1738810385 1.0073191763
