12
0
N 2.9023095752 1.6097694464 0.4454184434
C 2.0112443196 0.7863887017 0.6037147886
C 1.0693467997 -0.0571115921 0.9488538646
O -0.2575152829 0.2833690371 0.8830153542
C -1.0385036922 -0.6474993448 0.1541983006
C -2.2270666919 -0.1353173804 -0.5346112829
C -1.2352564527 -0.4651915997 -1.2971640521
H 1.3394970313 -1.0416948812 1.3180282998
H -1.0093809776 -1.6339531582 0.6191207853
H -3.2196228909 0.2647792505 -0.4224457455
H 3.289815195 1.6322374383 -0.4959934619
H -0.8070169324 -0.5396009175 -2.2812542942
