10
0
O -1.5815461027 -1.9999035409 -0.1910539173
C -1.1011596214 -0.7700227101 0.0280479981
C 0.3629266251 2.4954585597 -0.4681341179
N 0.7366585651 1.4033689674 -0.0544107827
C 1.0943749136 0.2241513189 0.2027673318
N 0.2253429122 -0.8703444901 0.0467703149
H -2.5376165841 -1.9339283097 -0.1910202685
H -0.15043587 3.1098141709 0.281045671
H 2.0891237908 0.0174071767 0.5723234607
H 0.6666993714 -1.7782091429 -0.0648706903
