17
0
C -1.5194875192 -0.103582511 0.0092578054
C -1.219241972 -1.5696191669 -0.1242591667
O -0.3754774045 -2.0437515657 -0.8356266999
C 1.9653676222 0.2144737051 -0.2571822579
C 1.3155932141 0.2772884541 1.09083855
C 0.7742430477 1.1004013052 -0.0443146716
C -0.5696011451 0.8401347176 -0.7172116634
H -1.5856533326 0.1285329421 1.0778018528
H -2.5431173277 0.0146312742 -0.3699414541
H 0.7630655569 -0.59653206 1.4130650139
H -1.8686298426 -2.2332753482 0.4856306446
H 2.933844812 0.6803278932 -0.3854079972
H 1.8087884004 -0.6874882023 -0.8340903037
H 1.8261199945 0.7919426324 1.8944407499
H 1.0127261471 2.1554816963 0.0283679842
H -0.4098139891 0.4659734131 -1.7312942211
H -1.0807772622 1.7993528208 -0.8212561656
