13
0
O -0.3536817014 -0.8777468781 0.9070204177
C -1.109843169 -0.7415510706 -0.2765199574
C -0.6965097245 0.6293474781 -0.8046708894
N 0.6552652345 0.7812667168 -0.2671535461
C 0.9097151776 -0.3075500566 0.6632021919
O 1.4818361955 0.1110590715 1.8424306552
H 1.0299820038 0.9204527293 2.1020199835
H -2.1657486161 -0.8225059421 -0.0215922523
H -0.8548739298 -1.5360972859 -0.990704702
H -1.3535815215 1.4125381571 -0.4182866394
H -0.7129485031 0.6812201077 -1.8944264757
H 1.3639675448 0.8403519431 -0.9802446855
H 1.5964980093 -1.0637519705 0.2588148995
