10
0
C -0.8352896586 1.37810867 0.3787631072
C 0.2572576206 -1.1862450333 -0.0881877913
C 0.9291487202 0.0765304812 -0.415097228
O 0.3408023382 1.1955927798 -0.1595344707
H -1.4429539736 0.5356596628 0.6663902979
H -0.7114270572 -1.2658159028 -0.6076614641
H -1.1178568631 2.4091853753 0.4945454789
H 0.0262262967 -1.2456049998 0.9879476964
H 0.874521638 -2.039138607 -0.3621007362
H 1.902717939 0.1855865738 -0.8645898901
