11
0
C -1.6749169998 -0.1179806194 -0.0443844577
C -0.1869977019 -0.0652601725 0.0140750608
C 0.6949398722 1.0053997692 -0.2065553531
N 1.9386166486 0.5748591429 -0.0566116261
N 1.7837616405 -0.6938192023 0.2384933775
N 0.5454958781 -1.1347356048 0.2976855188
H -2.0308375186 -0.0518570339 -1.0743199911
H -2.1210113884 0.7050898899 0.5150521273
H -2.0295412742 -1.0571743736 0.3775061823
H 0.4882193688 2.0332826866 -0.4570822549
H 2.5669704748 -1.2972134825 0.4156684164
