12
0
O 1.0847757768 -0.6518443281 0.7046718044
C 2.2499319612 -0.2381916168 0.3301363676
C -0.2081950391 0.9775233726 -0.7243499772
C 0.0176806469 -0.4500531008 -0.242047482
C -1.354245676 -0.3142670868 0.4058527151
O -1.5531790275 0.9630074397 -0.2152201738
H 2.8958989206 -0.5110167123 1.1935059607
H 0.4260986948 1.7108070173 -0.2200652378
H 0.1200909344 -1.2099354831 -1.0123619755
H -0.1745916659 1.1394486078 -1.8022790545
H -1.310379995 -0.2451813534 1.4969772711
H -2.1125745314 -1.0412077561 0.1090277818
