12
0
C -1.5106262178 -0.3180160683 0.0185228223
N -0.1253729216 0.083154507 0.02667032
C 1.0343632802 -0.7745829981 -0.1729198613
C 2.225536278 0.153812888 -0.0804519671
N 1.7006684667 1.3876171329 0.1494290166
C 0.3703492025 1.2869163472 0.1996879611
H -1.7846806951 -0.7292482183 -0.9547246175
H -1.691655968 -1.0765709112 0.7817557908
H -2.144510386 0.5434053581 0.2252194691
H 1.0044511617 -1.2643039045 -1.1506418649
H 1.0940815391 -1.549976954 0.5965226746
H -0.2876997396 2.1342188212 0.3728812564
