13
0
C 1.7980641306 -0.0261910344 -0.0834011851
C 0.3649887738 0.4595168363 -0.227480653
C -0.6071334535 -0.5751085653 0.2743789833
N -1.7699388753 -0.681922311 -0.220843726
C -2.8131837091 -0.8536215206 -0.8222332432
O 0.1785355038 1.7198940484 0.4064029553
H 2.4892256229 0.7392018775 -0.4356374794
H 2.0297837132 -0.2405258601 0.9644207157
H 1.9595226957 -0.9401498221 -0.6577444796
H 0.141659713 0.6518717467 -1.2793284888
H -0.343872689 -1.2364195722 1.0943838823
H 0.3134844097 1.609621189 1.350902885
H -3.6737708359 -0.2740550121 -0.4789121665
