12
0
N 1.9764431347 -0.8999922113 1.911921531
C 1.5231710793 -0.5696626847 0.9093585982
C 0.8799634968 -0.1603213205 -0.396753817
C -0.3307173464 -0.9857073215 -0.7679255544
N -1.3732085848 -0.2669930048 -0.1868228071
C -1.0584200139 0.9611198861 0.1034195906
N 0.251800687 1.1618728447 -0.2784908562
H 1.6691385321 -0.1552845897 -1.148810297
H -2.3134851358 -0.618097513 -0.1255798594
H -0.3349337921 -2.0517787001 -0.5864548403
H -1.7503462831 1.7422449263 0.365980018
H 0.7704682262 1.8922506884 0.1800802937
