13
0
O 1.5611303215 2.6925084076 1.4968687971
C 1.6631753146 1.6811360107 1.0213057286
N 1.0356712845 -1.2035832215 -0.8547447476
C 1.2865606102 -1.8355178955 0.2066754843
C -1.4403650794 0.4767399046 -1.2424967937
C -1.8447563021 0.5651518145 0.1407907465
N -0.9761545573 1.4934393119 -0.6946443709
H 1.3438127153 -0.234043045 -0.7725916938
H 1.774400366 -1.392132467 1.0807555217
H 1.0073578979 -2.8873180417 0.2791106997
H -1.4173790969 -0.0265800875 -2.1973930859
H -2.8300256403 0.9319340939 0.4095070154
H -1.3353968339 -0.027679785 0.8953716984
