16
0
C 1.993346641 -0.5941668699 0.3550946874
C 0.5287476058 -0.9944635243 0.241104864
C -1.6573385983 -0.6160883429 -0.9838126057
C -1.9669848319 0.7060303093 -0.3483679841
C -0.5404131714 1.2316860046 -0.6013993092
C -0.1873819756 -0.2474087149 -0.8882708047
H 2.4753176773 -1.1070120902 1.1891061198
H 2.100431656 0.4803027161 0.5205093465
H 2.5401583815 -0.846741127 -0.5558438937
H 0.439993326 -2.0685316926 0.059168156
H 0.0179020837 -0.7981249426 1.1894933272
H -2.8676077117 1.2418958165 -0.6528349182
H -2.1015381561 0.4464275349 0.71404705
H -0.0272966508 1.7329260965 0.2222476711
H -0.4745289192 1.8618599741 -1.4873401295
H 0.3422746436 -0.4607401476 -1.8238715771
