17
0
C -0.9472203831 -0.4407213558 0.7060748247
C -2.0639623569 -1.3976741147 0.3153026073
O 2.0195501394 -1.0354861166 -0.8572980992
C 2.5465511766 0.0249395127 -0.620427546
C 1.8716758389 1.2315942142 -0.1117454697
C 0.549635557 1.4170505815 -0.0583319214
C -0.519705646 0.4554962924 -0.4636620738
H -1.2664954924 0.1824305099 1.5475549946
H -2.9529076162 -0.8565637196 -0.0186338114
H -2.3546568409 -2.0295113747 1.1562789085
H -1.7472465114 -2.0531100037 -0.499015892
H -0.0738827239 -1.0038464805 1.0430162419
H 3.63751065 0.1441705543 -0.7819935361
H 2.532051935 2.029569531 0.2121572238
H 0.2052972719 2.3682935469 0.3419234816
H -0.1702068262 -0.1789433515 -1.2785592056
H -1.3877311719 1.0196557741 -0.8176547271
