14
0
C -1.6601954366 -0.9095312048 -0.1102162928
N -2.0043554818 0.5035396365 -0.0915922739
C -0.6669297078 0.1109089917 -0.5117227463
C 0.5027380801 0.3472560145 0.3782994524
C 1.8829381413 -0.1494436575 -0.0582107403
C 2.2694510588 1.3293204555 -0.0970473724
O 1.0499943709 1.7015444299 0.2575891629
H -1.5048146346 -1.4238171442 0.8329159953
H -2.1584592201 -1.4961306417 -0.8718013251
H -1.9970419999 0.8746942626 0.8514043979
H 0.2434587335 0.1634141718 1.4245809867
H 1.9262078481 -0.6281770025 -1.0377805695
H 2.4514295162 -0.7471272352 0.653915521
H -0.4727792681 0.2681719232 -1.5687241961
