15
0
C -1.4152010231 1.0633714462 -0.5207946799
C -1.347693599 0.132533848 0.6054520007
C 2.4457353598 0.7911975299 -1.2824881528
C 2.1666838146 -0.2303139544 -0.5048747794
N 1.9713849219 -1.1825389333 0.2131812765
C -1.3585488887 -0.280677428 1.8054616361
N -0.8740680531 -1.2801719157 0.7955904875
H -1.7155442101 2.0546505488 -0.1841049152
H -0.4308056305 1.1226088152 -0.9953623771
H -2.1276414569 0.7084956939 -1.2682634352
H 2.6624131244 1.7571056089 -0.8503490076
H 2.5032840226 0.6563013084 -2.3526367042
H -1.4258521526 -0.2099351912 2.8738002697
H 0.9804146757 -1.3802918669 0.4633748886
H -1.6289959048 -1.9263005097 0.5659084924
