12
0
O 0.2029601321 -1.4944425686 -1.0862119235
C -0.082099851 -0.3553292995 -0.3284259943
C -1.3461249887 -0.2940811194 0.4302634168
C -1.2966276795 0.3246376926 -0.9159863202
O 0.8069612236 1.6986859677 0.6199935013
C 1.1373828135 0.4287516287 0.1016385802
H 0.0809079621 -2.2691821858 -0.5328416115
H -2.0396317851 -1.1097898795 0.6080588542
H -1.3284887302 0.4630203923 1.2154475148
H 0.5977588178 2.2849760181 -0.1106754349
H 1.6667740589 -0.1065212742 0.8936846972
H 1.8046440263 0.4990476276 -0.7643022801
