13
0
C -1.2045202599 -0.1170596201 0.2088277467
C -1.5171959516 1.2854898965 -0.2318694367
C -0.1315855411 0.8053480122 -0.1186891144
N 1.0592233176 0.9485746368 0.6105415088
C 1.6653647997 -0.163205777 0.4878508148
C 0.9382081924 -1.1863329647 -0.3652831952
N -0.2534358914 -0.4685498146 -0.8662578609
H -1.3571909481 -0.6296641285 1.1443686561
H 0.690453384 -2.0780297559 0.2218832412
H -1.9434361188 1.4549293782 -1.2181021548
H -1.856627677 1.9515265361 0.5535553451
H 2.5832878856 -0.3636585781 1.0317879422
H 1.5319548084 -1.5129748209 -1.2203424929
