16
0
C -0.5107938159 2.2628072475 -0.0909458142
C -0.8939827778 -0.0981257751 -0.7790220483
C -0.249477833 -1.0986817752 -0.1303334762
C -0.8012771561 -2.4787241763 0.0489901788
C 1.0522810465 -0.6883947784 0.3991595664
C 1.2855355301 0.5861320968 0.0975709788
N 0.1263701305 1.0559049379 -0.653047926
H -0.8388455031 2.0231469061 0.9182371807
H -1.3753290967 2.5067001561 -0.7029505894
H 0.2004334132 3.0891801852 -0.0700498102
H -0.1547749335 -3.2353145069 -0.4049845871
H -1.7821315012 -2.5430890689 -0.420588365
H -0.9106848686 -2.7359799173 1.1066411948
H 1.7304673121 -1.3172015201 0.9627222344
H 2.1081232219 1.2504748035 0.3114093537
H 0.3867328316 1.2439201853 -1.6204480712
