17
0
C 1.5506382741 -1.3607064393 0.1181928225
C 0.5973424628 -0.2658134568 -0.3295236987
C -0.8525743197 -0.7294973865 -0.4972103723
C -1.6911485833 0.535028699 -0.3590506945
C -0.8460300128 1.5601775911 0.3517562667
C 0.5041973095 0.9157279585 0.6401955908
C -1.2525010758 1.7629260133 -1.0538440488
H 1.2382313266 -1.7720812577 1.082045364
H 1.5806857107 -2.1811277747 -0.6015997771
H 2.5677629202 -0.9798420632 0.2301378553
H -1.1287887713 -1.4305631438 0.2966683467
H -1.0210098279 -1.2265539384 -1.455004344
H -2.76844204 0.411231003 -0.2926307942
H -1.1840367166 2.3303433557 1.0392183295
H 0.5190433734 0.5668430375 1.6776405458
H 1.3263232781 1.6233742083 0.5135531705
H 0.9326246918 0.1275355941 -1.2971825619
