13
0
O -3.0150947798 -0.7621246637 0.4703611282
C -1.8658428898 -0.4589609546 0.3619308435
C -0.9926646892 0.6459824631 0.8364993775
C 0.0759401195 0.1071311777 0.2266825017
C 1.5092528988 0.4906319013 0.1223025793
O 2.0090587663 0.3449143688 -1.1904426379
C -0.6492031457 -1.0955067206 -0.357721349
H -1.1477690864 1.5311151573 1.4393599545
H 1.5532550326 0.9641023746 -1.7639638091
H 1.6585681196 1.5065727119 0.5053278076
H 2.1017607302 -0.1850947058 0.745194123
H -0.7205990387 -1.131878918 -1.4457103612
H -0.3450920372 -2.0731591921 0.021156842
