12
0
O 0.9595901312 -1.5275032567 0.1445870364
C 0.8515474037 -0.4281430063 -0.7825710303
C 0.6213786923 0.7349598017 0.1975693669
C -0.7578326906 1.2478113076 0.2660402273
N -0.3798690757 0.0668346916 1.0477340357
C -0.4198296517 -1.1916289211 0.2665908527
O -0.477001754 -0.8363881002 -1.1165651433
H 1.5782747166 -0.3846247354 -1.5882851258
H 1.4678736941 1.2142075523 0.6704903885
H -1.4030698649 1.1208481504 -0.592060107
H -0.9507443296 2.1167710446 0.8829475975
H -1.1050582715 -1.9551865283 0.6201959015
