14
0
C 1.7571929258 1.0998853773 -0.085530389
C 0.3706505332 0.7306749271 0.3160693568
N -0.291608168 -0.1321682491 -0.3223137155
C -1.6352642134 -0.4822180822 0.0850938078
C -2.1696469544 0.2124598201 1.2675000423
N -2.558033203 0.7707331725 2.1912960241
H 2.4502389122 0.8993677988 0.7351185493
H 2.0646751299 0.5390271507 -0.9660980407
H 0.7827451903 -3.179250184 -1.3350339193
H -0.0427132353 1.2443252157 1.1934445268
H 1.8143661439 2.1707845827 -0.2951517919
H 0.6346253413 -2.4555516738 -1.2228411903
H -1.6690824169 -1.5573682587 0.2770995593
H -2.3110629855 -0.2970235973 -0.7528148196
