11
0
N 2.0280837828 0.5903368779 -0.0757186952
C 1.4937702214 1.6453003066 -0.3448328028
C 0.3992216542 -2.2469965906 0.3611523456
N -0.0977736591 -3.2650907138 0.5232478262
C -2.2528574932 -0.2058525069 0.0915386449
C -2.0384761279 0.944676756 -0.1524421178
O 0.8796792126 2.5909840405 -0.6010255088
H 3.0214589932 0.4954672927 0.0514677703
H 0.8598209815 -1.286552952 0.2101540104
H -2.4430140172 -1.2326118363 0.3069533643
H -1.8499155484 1.9703383258 -0.3704958372
