16
0
C -1.6884643376 -0.9919800352 -1.6435168165
C -0.5914449501 0.7412723065 1.5954393969
C 0.6164858851 0.2469738396 1.3804899455
O -0.6419202669 -0.1397532865 -2.0429121668
C 1.5232928292 0.7277970529 0.2960539382
O 1.8103314368 -0.3735783606 -0.5671220336
H -2.5968386363 -0.6561550196 -2.1450057614
H -1.5053554174 -2.0348679778 -1.9291721315
H -1.8600249079 -0.9552940878 -0.5608567589
H -0.9990886321 1.5245184294 0.9651457225
H -1.2174789897 0.3796637439 2.4020497576
H 1.0041349965 -0.5549542933 2.0023766987
H 0.1656447713 -0.4047099301 -1.5826390589
H 2.4548311262 1.1078825378 0.7316199379
H 1.0436054042 1.53933289 -0.2613279851
H 2.5277096888 -0.1293278093 -1.1549736848
