16
0
C 1.7728254771 0.6514945224 -0.3088389146
C 1.2814313281 0.0836580909 1.0067653257
C 0.2993852088 0.9919838678 1.5108651413
C -1.3279338196 -1.3695522083 -0.581234819
C -0.4556941235 -0.1285012356 -0.5900309555
C -0.8196841743 0.8797569664 0.5393375262
N 0.9443925707 -0.5042047153 -0.3372466849
H 2.8278149628 0.5037115514 -0.5041700234
H 1.3717879113 1.6008911057 -0.6543857036
H 2.0121192448 -0.4292840711 1.6165957524
H -1.2556708695 -1.8773252015 0.3837170418
H -1.0179883919 -2.0709526952 -1.3561510981
H -2.3741972424 -1.1047161437 -0.7496786212
H -0.5057755965 0.3491753777 -1.5725194056
H -1.2178113666 1.8491864227 0.2309486015
H -1.6119411194 0.4461013657 1.1685158372
