10
0
N 1.1941262128 0.0577912085 -0.4295485342
C 0.043316987 -0.8498750136 0.3618703963
O 0.5020415155 -1.8914435559 0.7838042618
C -1.1217907239 -0.1724560609 0.2957476163
O -1.2269808242 1.0401584485 -0.4106079201
H 1.5640612061 -0.5239280706 -1.1724777857
H 1.9347672657 0.2664688615 0.2298283587
H 0.7501779182 0.9000507508 -0.7927230329
H -2.0315755444 -0.6128318765 0.6775866481
H -1.5314990128 1.7153883081 0.198093992
