15
0
C 0.9157727273 -0.8570768603 0.8324578569
C 1.0897522379 0.7620117811 -1.6947082959
N 0.444400242 1.0835896681 -0.6181979272
C -0.1743746941 0.0467639384 0.2561131109
C -1.2056825482 -0.753742949 -0.5390124352
C -0.8485564672 0.7676575931 1.3513126505
N -1.368757753 1.3417457586 2.1970704481
H 0.474168635 -1.6243646148 1.4680116325
H 1.439277622 -1.3261820481 -8.1473e-06
H 1.6283207928 -0.2787014055 1.4206720019
H 1.447237516 1.702432719 -2.1438876813
H 0.315027643 2.0356400479 -0.2846402797
H -0.6972363262 -1.2218769113 -1.3810252468
H -1.6547884137 -1.520503533 0.0919014729
H -1.9933312135 -0.1027221841 -0.9183481604
