19
0
C -2.1664599654 -0.3753172667 0.2952393581
C -1.0133209254 -0.2087255849 -0.7129152352
C -0.6922073088 1.2486633619 -0.7605710548
C 0.7173788893 1.5669146029 -0.5659239522
C 1.7033421757 0.6517746611 0.1871813281
C 1.0547322706 -0.6521573052 0.6410067901
C 0.1395246543 -1.1895658468 -0.4517774296
H -2.9864094838 0.2988375346 0.0526068834
H -2.5297228338 -1.4043309662 0.2770732946
H -1.8434107164 -0.1538404944 1.3147059809
H -1.4578190507 -0.4105456563 -1.6971223447
H 0.7220055259 -1.3275159584 -1.3698374026
H 0.8806122953 1.5024830215 -1.6726224744
H 0.8836131662 2.6258227789 -0.3597146904
H 2.5636697036 0.4324334845 -0.4511997597
H 2.0958996518 1.1962111939 1.0480743604
H 0.4675591085 -0.4765354014 1.5485966142
H 1.8205541834 -1.383395372 0.9067810992
H -0.2545683402 -2.173644787 -0.1843383654
