10
0
O 2.0057270644 1.1711371282 0.8365449606
C 1.5023766402 0.0709610166 0.3015016012
C 0.2064421147 -0.106577118 -0.0017111304
N -0.3927211889 -1.1934687784 -0.5446291332
C -1.6472266242 -0.8638466971 -0.6323429854
C -1.935786283 0.4963270012 -0.1368225068
O -0.7201406663 0.8972579547 0.2386881905
H 2.2244279975 -0.7119500469 0.1131268334
H -2.3874300516 -1.5427900309 -1.0333167568
H 1.3046109972 1.8210005704 0.9761359268
