15
0
C -0.8888431627 -2.3714940481 -0.0063331922
C -0.1122188673 1.146140663 -0.438005349
C -1.0358865364 1.6990147016 0.5540045608
C 1.2540385532 1.0549174686 -0.0268095513
O 1.7774976873 2.153066798 -0.2090379559
N 1.8864790973 -0.0554186939 0.4051897245
H -0.7466101022 -2.044974756 1.0246121961
H -0.0967741908 -3.0669060092 -0.2831613028
H -1.8489530886 -2.8779803944 -0.0864073337
H -0.8790459631 -1.5130583303 -0.6794645699
H -1.9011968218 2.1957373561 0.116642402
H -1.4209792439 0.7725332683 1.0200728325
H -0.5824008986 2.3001673494 1.348257253
H 1.4407674443 -0.9502572447 0.3070856797
H 2.891524093 -0.0274351286 0.4450096062
