16
0
C 1.1103890173 -0.8283758267 -1.1650266665
C 0.0541655839 1.565495696 1.1287783466
C 0.364627737 0.1451881301 0.992004466
O -0.636174349 0.5873384177 1.8919974124
C -0.0521078938 -0.7137021487 -0.1819494422
C -1.3248894911 -0.2321611744 -0.8671347018
H 2.01148802 -1.2129721397 -0.6819425379
H 1.3508259775 0.1476364047 -1.5952186737
H 0.8600690652 -1.5031734024 -1.9855566825
H 0.7204523621 2.2087847232 1.6964567922
H -0.5434738293 2.0667743033 0.3735138879
H 1.2667004673 -0.2076657386 1.4925336293
H -0.2489354166 -1.7104750552 0.2311003889
H -1.1538049266 0.6943115126 -1.4213952082
H -2.1200651105 -0.0568023789 -0.1416000903
H -1.6741352136 -0.978812323 -1.5823079202
