12
0
O 0.5121351177 -1.198011217 0.8936245702
C 1.5903884684 -0.7764485856 0.5557441828
C 1.8077270593 0.3869980655 -0.3315265545
C -2.7005737385 -0.460020616 0.36741766
O -2.5725095091 0.511168882 -0.3268325703
C 0.8010312838 1.0933654953 -0.832790006
H 2.5121844666 -1.2722287781 0.9188375738
H 2.8401529953 0.6379354756 -0.5527781952
H -3.704538989 -0.8270334141 0.655407248
H -1.828939191 -1.0197762443 0.7450129643
H -0.2333027508 0.8464872495 -0.6133160395
H 0.9837477876 1.9422856868 -1.4805618337
