19
0
C 2.4863865755 -1.4239738495 0.2144761068
C 1.5627369153 -0.5762341117 0.6384755973
O 1.8577564656 0.5576083431 1.319662157
C -0.8577795986 2.4656230011 1.0791308705
C -1.1298771534 1.8376954083 -0.256294216
C -1.3924513651 1.2947157897 1.119934966
C -1.1870997272 -1.8692448077 -1.6075434106
H -0.241512876 -1.5031028291 -2.005327875
H 2.1879334553 -2.3120725626 -0.3230828761
H 3.5390694522 -1.2483051314 0.3943663485
H 0.5045443695 -0.7526150758 0.4581348077
H 1.041692424 1.0313465796 1.509325075
H -0.495274258 3.3403975535 1.5901953204
H -0.3019297451 1.4438635688 -0.8432965396
H -1.9641569884 2.1985978448 -0.8544895004
H -1.8029048024 0.4810120911 1.6924401549
H -1.7745410674 -2.3092288676 -2.4117286314
H -1.7384955093 -1.0391242732 -1.1670940941
H -0.9926315667 -2.6247876717 -0.8470282608
