16
0
C 2.9422081627 -1.1085646332 0.1574322635
O 1.8857400766 -0.4115612532 0.7725069284
C -0.5404601819 0.6647275404 -1.2000063132
C -1.208065489 0.6249164342 0.0957126196
C -2.6998227046 0.6397001509 0.2326067914
O -0.6368102841 -0.556516883 -0.4700794094
H 2.8918867614 -2.1875541769 0.3460786713
H 2.9705484225 -0.9494138614 -0.9278775485
H 3.8753448668 -0.7329944962 0.5786030216
H -1.137226421 0.6970231847 -2.1066940665
H 0.4621247524 1.0750920444 -1.2727762206
H -0.6447537129 1.0001689876 0.9475465465
H -3.0118382344 0.036020599 1.0864193798
H -3.1722633271 0.2395542678 -0.6651320458
H -3.0535549615 1.6604393748 0.3907768091
H 1.0500432742 -0.7062492799 0.3837175729
