15
0
O 1.9291092513 0.9685847987 0.3924165435
C 1.0104199879 0.3641288253 -0.4909392254
C 0.6339037216 -1.1022658061 -0.1668985686
C -0.8888955983 -1.0044363613 -0.1263076987
C -1.1045433033 0.3346257228 0.7020309542
C -0.3778903994 1.0040918462 -0.5411562865
C -1.385875143 0.0484645748 -1.0278913848
H 1.5931710887 0.9198363714 1.2900638265
H 1.074373846 -1.4266674312 0.7796278591
H 0.9620099552 -1.7997644728 -0.9381474551
H -1.483651896 -1.8901650921 0.0720581601
H -2.1050835442 0.6535899684 0.9632207328
H -0.4581936369 0.3248151848 1.5747215477
H -0.4573069019 2.0668342414 -0.7448093629
H 1.4836395723 0.4502496296 -1.4693156419
