12
0
C -1.1245067618 -0.2007505137 -1.0196931263
C -0.1922916429 -0.4558849523 0.1649164094
C -0.3208527488 0.6686859105 1.1731612307
O 0.5918926035 1.3517614825 1.5355219983
C 2.2018718732 -0.0974551888 -0.0436206933
O 3.2833525824 0.3155472745 0.0528033603
N 1.1554704237 -0.6559037146 -0.2636324179
H -1.0781375237 -1.0412259836 -1.7103079489
H -2.1563700678 -0.0854368993 -0.6830804982
H -0.8236195821 0.7022571403 -1.5524942104
H -1.3486420955 0.825176718 1.5578408289
H -0.5343390603 -1.3638832732 0.6782670675
