8
0
O -1.8852562454 1.1048956894 0.4675864007
C -1.4469898543 0.0780958803 0.0193763354
C 0.7889079852 -1.2036089064 -0.6169106468
C -0.0560472952 -0.0833109788 -0.3980728059
C 1.1680162525 0.412161838 -0.0096404925
O 1.9893653335 -0.3804530187 -0.7235685565
H -2.0795982187 -0.8155112203 -0.1277122591
H 1.5256070425 0.8999387165 0.8951410247
