10
0
C 1.9593904852 -0.6847879482 0.8025945451
C 0.8042972101 -0.3766053861 0.2854152462
C -0.3391345747 -0.0631594589 -0.2117459897
C -1.434075237 0.8559976274 -0.4540646591
N -1.3902040522 -0.5037780732 -1.0398426283
H 2.8882726521 -0.4191437073 0.309442283
H 2.0275450012 -1.2181983616 1.7446055925
H -1.2452250215 1.7080458675 -1.0992724969
H -2.2035458461 0.9973188393 0.2958262717
H -1.1348576173 -0.4976893989 -2.0213841646
