14
0
O 2.0894314175 0.7657200942 0.8115955915
C 1.8166324769 -0.5224998787 0.3035699232
C 0.3157858892 -0.7723866223 0.2195258168
C -0.3824618503 0.1778623983 -0.6622565074
C -1.7454905694 0.4249171475 -0.2916178732
O -2.5771373784 1.0662559727 -1.2077015086
H 1.7971864683 1.3992725174 0.1499999955
H 2.2627221404 -0.6544274539 -0.6887410461
H 2.2875572847 -1.2301800955 0.9875944348
H 0.1379472059 -1.7201193876 -0.3214902048
H -0.1274961519 -0.899283789 1.217980476
H -2.0020582054 1.4273449568 -1.8899755871
H -1.4232979716 1.1232028651 0.5367579798
H -2.311874756 -0.3709657252 0.2105235096
