12
0
O 2.4581887598 -0.680363485 -0.6695149728
C 1.3637369036 -0.2683012983 -0.4059892171
C 0.0818322193 -1.1052941442 -0.2242930092
C -0.9162398614 -0.0999346378 -0.6864036258
C -0.3637319254 1.130834342 -0.8976265962
C 0.9087948354 1.1447034132 -0.2845077044
H -0.0209367907 -1.3199059009 0.8434643233
H 0.0615486635 -2.0526670602 -0.7647213123
H -1.9828533811 -0.3009034018 -0.7234713806
H -0.5800439174 0.5660635229 2.8038754667
H -0.9267314381 2.0069298227 -1.1927035202
H -0.1443170676 0.9951818272 2.3755595484
