12
0
C 1.7996951993 -0.4163886493 0.0764012533
C 0.3540284224 -0.0944852292 0.0044882993
C -0.4159205115 0.8743349859 0.5521964892
C -1.7528402645 0.6374625467 0.0972680318
C -1.6868821597 -0.4555448281 -0.6897006409
O -0.4135753549 -0.9134292618 -0.7574901107
H 2.3094236308 0.3105261322 0.7066562184
H 2.2563411994 -0.3956540312 -0.9151295876
H 1.9583488352 -1.4113974388 0.4973301729
H -0.0769440001 1.6635156449 1.2035395246
H -2.6379964527 1.2071026545 0.3292423885
H -2.4200135437 -1.0108145259 -1.2502750386
