13
0
O -0.2703249328 1.5678020669 0.9934867524
C -0.7834367691 0.3731836123 1.0126224244
C -1.3943820125 -0.929021567 -0.9937383289
C -0.2451411384 -0.4261444261 -0.1346922251
O 0.6722527424 0.2602960539 -1.0095493759
C 1.9245715002 0.3994371991 -0.5792411473
O 2.368472318 -0.0214059712 0.448777999
H -0.6199100693 2.0632643146 1.7421216967
H -2.1002084412 -1.482597734 -0.3769919543
H -1.0131593604 -1.5817136619 -1.7780265371
H -1.9176460672 -0.092836351 -1.459459962
H 0.2744898786 -1.2681499759 0.336057622
H 2.5043123515 0.9576514403 -1.3268259641
