16
0
C -3.0903454504 0.421011661 -0.1923128046
C -1.8899473507 0.9049885558 0.5692131095
C -0.6621631699 0.7577857961 0.1789716362
C 0.5756138334 0.5989509652 -0.2091360299
C 1.3984804962 -0.5885621033 0.1324921722
C 2.827353765 -0.5199836908 -0.3408642706
N 0.8859943855 -1.5561489608 0.7728325757
H -3.659025877 -0.2905615111 0.4099391196
H -3.7560685126 1.2524792847 -0.4343314059
H -2.7950247746 -0.0701245309 -1.1181947978
H -2.0588346491 1.4009049542 1.5220203065
H 1.0412387742 1.3754833042 -0.8093012445
H 2.8616664567 -0.4153974539 -1.4282740209
H 3.3242698234 0.3564452048 0.0822085878
H 3.3841777339 -1.4122741451 -0.0561858419
H 1.5770205159 -2.2858333299 0.9320449089
