14
0
C 2.4162653959 0.6859441808 -0.1670886862
O 1.4162569336 -0.2888110453 -0.3929161077
C -1.0094239564 -0.3868472067 -0.4504328252
C -2.265941059 -0.6995172045 0.3044116342
C 0.2223975688 0.0296601945 0.1924667053
O -0.5849864442 0.9827212673 -0.4618160777
H 3.3329582911 0.3129877104 -0.6192188029
H 2.1427146488 1.6394631582 -0.6274087177
H 2.5822893685 0.8389253674 0.9060179204
H -0.892842142 -0.8743151283 -1.4161050836
H -2.3562943211 -1.7763532027 0.4605973427
H -2.2710063477 -0.2017107857 1.2744684753
H -3.139596705 -0.3631773984 -0.256729154
H 0.2753337687 0.1614470932 1.2756373769
