15
0
C 1.5479775941 0.6971500325 0.8000314283
C 0.2901489543 0.3351656025 0.64124696
C -1.0558914317 0.9808692117 0.9150739131
C -1.7205016339 -0.2205936707 0.2312262506
O -1.7287154382 -0.0463397325 -1.2111996713
C -0.5799866736 -0.6691552597 -1.4373894142
C -0.356013791 -0.9169531419 0.0619390343
H 2.6501168957 -1.064938958 -2.7773524796
H 1.807352271 1.6642828675 1.214088546
H 2.3589356772 0.0348474434 0.5228870331
H -1.2606279499 1.9556229556 0.4722197283
H -1.2879124606 1.008893664 1.9815348603
H -2.6493882454 -0.6465818515 0.6010404127
H 1.9222876908 -0.9580941817 -2.6417246758
H -0.0510804588 -1.9009869812 0.4039410743
