14
0
C -2.4065471468 0.0706094042 -0.3543911774
O -1.0811021514 0.975858338 0.0695100436
C -0.029391628 0.4071035256 0.869412795
C 0.738280137 -0.6439843078 0.1169562934
C 1.9234378064 -0.2773208775 -0.6570083177
O 2.0369595856 -0.8913741327 0.6147335311
H -2.0563303624 -0.9221464405 -0.0253441193
H -3.0720994122 0.4166212352 0.4491717285
H -0.757058751 1.2314636839 -0.7989700406
H -0.5316667217 -0.0051914235 1.7430157027
H 0.642814421 1.2098160284 1.1812761779
H 0.1795024862 -1.5283359318 -0.1756956764
H 2.2420573131 0.761724111 -0.6972425822
H 2.2183484242 -0.8939452126 -1.4997643587
