12
0
C 1.5659939958 -0.1681010267 0.1385102958
C 0.1126923565 0.094405666 0.0069797373
C -0.7756935535 1.3140452422 0.0453539017
O -1.9290949517 0.4296574065 -0.180430906
C -1.021949974 -0.5824394473 -0.1923408754
O -1.4811507999 -1.8173426815 -0.3769321234
H 1.9542209601 0.1501411665 1.1100639227
H 1.7780117366 -1.2350785112 0.0396042138
H 2.1466587568 0.3483599784 -0.6308637665
H -0.7449615116 -2.4333438537 -0.3585495655
H -0.6914696288 2.0262073139 -0.7768066352
H -0.8870623864 1.8261017469 1.0022748006
