12
0
O -1.9748749255 -1.2400372933 -0.9246609285
C -0.9821058501 -0.7058618209 -0.5016269034
C 0.4188249238 -1.1403388525 -0.7015321249
C 1.2475901004 -0.2983018892 -0.0907868632
C 0.5420682498 0.8288317195 0.6121051476
C -0.9427151734 0.5597385354 0.350459948
H 0.6823059431 -2.0204063105 -1.271225026
H 0.7894653621 0.8336358469 1.6766771463
H 2.327804497 -0.3879357772 -0.0836946725
H 0.8723942223 1.7923816045 0.2157049191
H -1.5145555593 0.3866437123 1.2630321685
H -1.4396047902 1.3665905251 -0.1893438109
