12
0
O -1.8498984465 -0.5852337394 0.8265688873
C -1.0968200528 -0.5875705321 -0.1027640215
C 0.3986284266 -0.4199713832 0.0713636093
O 1.0937800564 -0.4329152493 -1.1725375458
C 0.9346890188 0.6575897381 -1.9297786837
O 0.2512775842 1.5965132795 -1.6489570894
H -0.8754360407 0.3613303414 3.1084349406
H 0.5904918461 0.5030170725 0.6210718116
H -1.4476571866 -0.7351718867 -1.1440193911
H -0.5222194007 0.6621497544 3.6928824105
H 0.7861436417 -1.265033683 0.6396629791
H 1.5272015538 0.557263288 -2.847770907
