11
0
C 3.1631816323 0.9452997026 -0.0805989795
C 2.1153144068 0.3920933549 -0.2549092344
C 0.8306398936 -0.2746449156 -0.4607022611
C -0.2930946826 0.2906904362 0.3286321524
C -1.4968960716 -0.213012766 0.2427043735
C -2.6802346149 -0.7251320984 0.1481660969
O 0.7269340486 -1.2065615078 -1.218505794
H 4.1027431307 1.4269290733 0.0610477252
H -0.0909669282 1.1314670124 0.982237243
H -3.3849534497 -0.3649376387 -0.5918892654
H -2.9867073651 -1.5331936528 0.8018279433
