12
0
O 0.2645434484 -1.4543710524 -0.8046550501
C 0.0139568966 -0.1797075643 -0.2681455429
C -1.2713588786 -0.1109067733 0.5230606932
C 0.1839784064 0.9478094003 -1.3142686673
O 1.2117499737 1.4530381606 -0.6645694427
C 1.2624770271 0.4343921241 0.3776889406
H -0.2666487636 -1.5509565453 -1.6005854332
H -2.1157836301 -0.3632791934 -0.1206978064
H -1.2379729182 -0.8198547291 1.3523385755
H -1.4398076291 0.892064684 0.9215300606
H 1.1670350956 0.8813896888 1.3673412929
H 2.1717309717 -0.1571291997 0.2926483799
