11
0
O 1.206640518 1.5238927846 -2.0472098774
C 1.3213968113 1.4821077875 -0.8590877389
C -0.8374783444 -1.070209482 1.5797193717
N -0.9120138274 -0.9521385788 0.255977148
C -0.2796718989 -0.1805703281 -0.598730803
O 0.6358616157 0.67452689 -0.0390917585
H 2.0028433218 2.0980826838 -0.2609114091
H -1.4775856466 -1.7938766518 2.0510085847
H -0.1509376642 -0.4482815227 2.125390998
H -1.5765593931 -1.5649452154 -0.1955455437
H -0.4500224923 -0.2008103671 -1.657747972
