8
0
O 2.4771436907 -0.1692676624 0.0382092234
C 0.2855045645 -0.0405391427 0.4788675576
N 1.3072300572 -0.7027493814 0.5586318808
O -2.3271548689 -0.6068736768 -0.6933474418
C -1.8356577951 0.4327220291 -0.3814134651
N -0.7691364968 0.5682969254 0.5356870926
H 3.1130362631 -0.8725245392 0.1940437545
H -2.2015064147 1.4108324481 -0.7244136021
