15
0
C 1.5369127509 -1.0308106702 -0.8417844609
C 0.3890658228 -0.2427960276 -0.2691275599
C 0.5551617908 0.9473400768 0.2365225352
C 0.7196354605 2.1347995803 0.7413024071
C -2.115246246 -0.0116259537 0.056651312
C -0.9629403639 -0.9176873187 -0.289377238
O -2.9768301838 -0.2895714512 0.8431850318
H 2.4752922675 -0.4859332911 -0.7564958471
H 1.6402096331 -1.9863276542 -0.3207195402
H 1.3580987348 -1.2530717528 -1.8973729946
H 0.6304023369 3.0245660679 0.1278841727
H 0.9501254916 2.2706387416 1.7920849864
H -2.1365204046 0.9533545609 -0.4895362857
H -1.1493350369 -1.2971456713 -1.3032133003
H -0.9781590537 -1.7803052368 0.3813687816
