12
0
O 1.0573830844 -1.3058864272 1.1021942752
C 0.5326775265 -0.0362491996 0.9051988229
C 0.6325771575 0.7265793659 -0.4408319478
C -0.4320076719 -0.2038997949 -1.0509962999
C -0.89429665 0.2191999753 0.3554270944
O -0.4496013442 1.5832584658 0.053348289
H 0.7818771209 0.5739929208 1.7706097674
H 1.48527536 1.2083117288 -0.914975501
H -0.1829612126 -1.2507139514 -1.239582164
H -1.001865797 0.2266477882 -1.8719027411
H 0.8508245421 -1.8697219173 0.3540031374
H -1.8650201159 0.0971800456 0.8318062676
