17
0
C -2.6820652159 -0.5023173739 -0.3131511595
C -1.3772376309 0.188634365 -0.5742282854
O -0.8154169641 0.9228618925 0.5071000525
C -0.1223775272 -0.2336205762 0.0393839194
C 1.2249349512 0.0080426968 -0.581513273
C 2.2340913122 0.5467137847 0.4256801337
O 2.4477843301 -0.3372613283 1.5120201435
H -3.5034007998 0.2166368098 -0.3117112549
H -2.8819842159 -1.244230584 -1.0890798494
H -2.6645734494 -1.0048143297 0.6545645307
H -1.3057453972 0.7083852459 -1.529113722
H 1.7501916126 -0.2062259899 2.1556438917
H -0.1738221955 -1.0759374761 0.7286930227
H 1.5970685123 -0.9308342933 -1.0011133122
H 1.1279543719 0.7271659512 -1.4000931091
H 1.9053335391 1.5286911254 0.7823946488
H 3.2032627664 0.67642108 -0.0592853777
