19
0
C 3.073978559 0.7627585267 0.2772565448
C 1.8457452898 -0.1178095602 0.2766111598
O 0.9975410746 0.300513426 1.3290509479
C -1.4155973135 -1.5545347747 -0.1398883239
C -2.1596676983 -1.0674214797 0.7940619906
C -2.3598636011 -0.4697564463 -0.5674951783
C -1.8856203798 0.9246280117 -0.9120869058
H 3.59141852 0.6916825467 1.2351047559
H 2.7949395563 1.8053122667 0.1171846278
H 3.7638227072 0.4625290381 -0.5135268466
H 2.1368089251 -1.1684674674 0.4119902551
H 1.3285244785 -0.0415634651 -0.6898179798
H -0.6569121247 -2.2544585317 -0.4465790864
H -2.4683991948 -1.0653895137 1.8256838218
H 0.1872150971 -0.2155258491 1.2881643958
H -3.2504800099 -0.7756657305 -1.1190726091
H -1.6182617624 0.9981968071 -1.9694959992
H -2.6689963594 1.6618630919 -0.7193704343
H -1.0111607639 1.2025471032 -0.3193751363
