12
0
O 2.0688374586 0.55412074 0.5701495929
C 0.8630991422 -0.1246005782 0.4789616146
C 0.0489972995 -1.2569939968 -0.0779135704
C -1.0950482437 -0.1741505204 -0.1733767453
C -0.1928978191 0.9056402939 0.4788660324
C 1.0384872664 1.0345865398 -0.362553203
H -0.1882638753 -2.0381453695 0.6439878354
H 0.3953153373 -1.7066926011 -1.0091916928
H -1.42056506 0.0403662412 -1.1917251755
H -1.9615737716 -0.4159388839 0.4387590105
H -0.4956808187 1.6050688034 1.2511882428
H 1.2151390844 0.9427493317 -1.4229209416
