13
0
C -1.2870393619 0.5871544749 0.141681253
C -0.4613085488 -0.6865582813 0.1071117984
O -0.7832004442 -1.4796170157 -1.0312252388
C 1.0293540595 -0.4845351362 0.17054515
C 1.666667341 0.6710867258 0.2768864612
H -1.1353349448 1.1352242345 1.0733653106
H -2.3438891306 0.3338146147 0.0595901963
H -1.0284762064 1.2477665534 -0.6901520007
H -0.7499256617 -1.3145345623 0.9562542306
H 1.5996889004 -1.4072716891 0.0982389744
H -0.467808923 -1.0164302768 -1.8113840153
H 1.1423292619 1.6169867455 0.350724424
H 2.7488856585 0.7129136126 0.3003814564
