19
0
C 1.4912002673 -1.6619218362 1.0519572088
C 1.1705293006 1.7415108107 -1.4387725421
C 0.1720678879 1.6633421629 -0.5725571563
C -1.1770282088 1.0868975236 -0.8774676302
C -1.6220906171 -0.0269417039 0.0764896687
C -0.6304399589 -1.1683525591 0.1938876158
O 0.3896892241 -0.7978050161 1.0907273622
H 2.2067904497 -1.3186834695 1.7981344968
H 1.2036612414 -2.6960187714 1.2866880595
H 1.972591224 -1.6494297355 0.0650533778
H 2.1245952567 2.1761533937 -1.1663260795
H 1.0698328457 1.3701897518 -2.453910141
H 0.317547824 2.0337183673 0.4390387855
H -1.9223028045 1.888876499 -0.8391504831
H -1.179789469 0.7083868207 -1.9045338583
H -2.5803368042 -0.4219677679 -0.2709699049
H -1.7915579584 0.3742069663 1.0798852265
H -1.1260545878 -2.0808250552 0.5562071926
H -0.1987531126 -1.3989473811 -0.7927091987
