16
0
C -2.655232359 -1.2510971052 0.3368189956
C -1.4016281912 -0.8517384432 0.1736754981
C 1.3569591093 1.6488451927 -1.4408766414
C 1.7364029659 0.7098835605 -0.5870071881
O 1.9722257712 -0.5690876944 -0.9682724298
C -0.3333737312 -1.326073378 1.0009434089
N 0.558273615 -1.6770635435 1.6358102867
H -3.4396766096 -0.8734631496 -0.3057169238
H -0.4862924453 1.9950934505 2.0642639715
H -2.9309022284 -1.9607342411 1.1064788099
H -1.1055694435 -0.1411762406 -0.5904232745
H 1.2187525978 1.4313618037 -2.492451582
H 1.2059926776 2.6599407877 -1.0921658333
H -0.1987681119 1.3824872973 2.376167546
H 1.8835189556 0.9198434457 0.4691643254
H 2.0707374277 -1.1211387426 -0.1876239695
