13
0
C -0.005331269 -0.525568937 0.8189693069
C -1.0664981216 -0.1291278285 -0.2044120439
C -0.7771260535 1.1936859659 -0.8460775286
C 0.1841790067 2.0167378489 -1.0677847535
C 1.4081850095 -0.5317861787 0.2599481062
H -0.2600871398 -1.5192506357 1.1977680887
H -0.060924659 0.1582919672 1.670224147
H -1.134053851 -0.8842458286 -0.9939967842
H -2.0487426046 -0.088429936 0.2702144486
H -1.5717937106 1.7687204332 -1.3661806838
H 1.7119534646 0.4678276009 -0.0696891688
H 1.4967797773 -1.2031072655 -0.5974804848
H 2.1270611512 -0.851635206 1.0155113502
