16
0
N 2.3613814817 1.2021179436 -0.0091925611
C 0.1165234413 -1.2407107689 1.283086632
O 0.9988463008 -0.9859529834 1.9954973215
C -0.8507113976 -1.6369565562 0.4939469807
C -1.7592977612 -0.729690226 -0.2981737454
C -1.0300609797 0.492696082 -0.8300335872
O -0.4713344168 1.2091323129 0.2432625863
H 2.821678041 2.0483690949 0.298852198
H 2.8143935278 0.8952741568 -0.8594702801
H 2.511337341 0.4920501096 0.6982317221
H -0.9832403797 -2.7117533697 0.471658777
H -2.1775035893 -1.2941698332 -1.1348012767
H -2.6023243864 -0.3992307404 0.3166190781
H -0.2497373682 0.174921272 -1.5325957415
H -1.7349837493 1.1283364849 -1.37977903
H 0.4833288947 1.3352650209 0.0828709263
