16
0
C -2.7278995685 0.2522129536 -0.5259322983
C -1.5456587584 -0.5432625438 -0.0751829757
O -0.5139848386 0.2381482697 -0.0561276313
C 0.7536496048 -0.3505749565 0.3464032458
C 1.5801539965 -0.5684161102 -0.9018400665
C 1.3853428436 0.5969791938 1.342205761
H -3.1200988231 -0.2296166024 -1.4265334758
H -2.5311647485 1.3117189885 -0.7183298181
H -3.5124052852 0.1370396486 0.2267953473
H 0.503386205 -1.305855746 0.8119684776
H 1.0687955175 -1.2528330505 -1.5799143188
H 1.7512313805 0.376998527 -1.4208114458
H 2.5477850258 -0.9991372055 -0.6396802786
H 2.3350732748 0.1906889405 1.6932167611
H 0.7337323043 0.7405434379 2.2047938002
H 1.5743538693 1.5697542555 0.8840989161
