11
0
O -2.0689439104 0.9862773457 -1.7816623369
C -1.1377907724 0.5346768268 -1.1782202252
N 0.1161563763 1.1886224369 -0.9635453547
C 0.8078812215 0.4082861958 -0.2391596813
O 2.0357001001 0.6519876672 0.1860438047
C 0.1475932111 -0.8844721552 0.1399508216
N -1.081775888 -0.7033933204 -0.5726765018
H 0.0280075782 -0.9542719251 1.2257347384
H 2.297612057 1.5176355352 -0.1532280291
H 0.7370425136 -1.7401113223 -0.20152239
H -1.8959864872 -1.2815382845 -0.4857788456
