12
0
N -2.1505158404 -0.0379861244 -0.1071683618
C -0.8901720279 -0.0247302916 0.0138592443
C -0.0949043216 1.2313777502 -0.2055421159
N 1.335487016 1.0617978685 -0.351337789
C 1.8411142248 -0.0670722175 -0.1063574544
N 1.1818817816 -1.252164843 0.3232820273
C -0.0847131078 -1.213322606 0.3764585389
H -2.5309821962 -0.9606624019 0.1054980953
H -0.4781872741 1.7607844681 -1.0799024263
H -0.2616587336 1.9074569134 0.6407497053
H 2.914446852 -0.1928050365 -0.2146922971
H -0.6235093726 -2.1105084791 0.6901908333
