13
0
N -1.3750655582 -1.3221688746 -0.86753938
C -1.2509413252 -0.5307514845 -1.7787907771
O -1.014671475 0.2003442443 -2.6422381654
C 0.250597398 2.0776174358 0.0540731944
C 1.1725974685 1.1451760177 0.2286180405
O 0.5055013657 -2.0042354574 1.4348065323
H 0.0213368365 -1.7387181724 0.6438013308
H -2.2681508501 -1.6217220274 -0.5154856423
H -0.5128765644 2.2654764467 0.8009920224
H 0.2208940542 2.6898851178 -0.840158527
H 1.935890639 0.9628914893 -0.5205602965
H 1.1993408214 0.5212221679 1.1147428556
H 1.1475511894 -2.6483359034 1.1343358124
