10
0
N -1.2424394649 0.6686562449 0.0777551778
C -0.2734210378 -0.1906415371 0.4466602832
O -0.5691117757 -0.8035760963 1.6022917178
C 0.8620002749 -0.4425375733 -0.2567509596
C 1.1119644764 0.2627904929 -1.4524382965
N 1.2683774697 0.8693898339 -2.4208957949
H -1.9434362366 0.9184949524 0.7494892607
H -1.088544264 1.2697025954 -0.7116719032
H 0.1377167941 -1.4093223766 1.8370918753
H 1.5742517639 -1.1807955361 0.0804276394
