15
0
C 1.6165951832 -0.7368996219 -0.3678165997
C 0.3822060831 1.8995600948 0.3885490945
O -0.6782976874 1.9758808784 -0.4068371436
C -1.3590527199 0.8099032487 0.1339104575
C -0.9895786331 -0.4451469924 -0.6585934491
C 0.2411898657 -0.6564368303 0.2649160117
C -0.1470814392 0.6357412963 1.0605665112
H 1.7974863563 0.1008252631 -1.0435355994
H 2.3998406311 -0.7232479042 0.392186915
H 1.7150415983 -1.6620017554 -0.9401990342
H -2.3885931458 1.0286540863 0.4081302137
H -1.7340319733 -1.2370151141 -0.5843349538
H -0.7780640172 -0.2520376087 -1.710822461
H 0.0805559294 -1.522920737 0.9081083434
H -0.1497530312 0.5932246966 2.1459836937
