18
0
C 2.6330820091 1.1597358167 0.3072920765
C 2.3591865105 -0.0853676553 -0.0436513986
C -1.1797526617 -1.3142551993 -0.2265981009
C -1.1954074127 -1.8251085568 0.9958419114
C -1.2564285394 0.1386375565 -0.5899310189
C -1.3790088595 1.1034811354 0.5776837225
H 3.2842403878 1.7899339368 -0.2878210437
H -0.3656142612 0.3880053781 -1.1775901898
H 2.2171865792 1.6012828387 1.2060480279
H 1.7033518028 -0.7161006944 0.5464670536
H 2.7769169937 -0.5249249651 -0.9426116013
H -1.0976114502 -1.9959229941 -1.0704903579
H -1.2736448371 -1.2040736843 1.8810734622
H -1.1305397683 -2.894445241 1.1557965881
H -2.1003532714 0.2749488245 -1.2755437522
H -2.2798972468 0.9104447014 1.1642298339
H -1.4264995407 2.1330831995 0.2205309303
H -0.5192714342 1.0256076029 1.2467538568
