13
0
C -1.0661717243 -0.4931398661 1.2979884067
C -1.5064802499 -0.5991622119 -0.1279442059
N -0.5577456764 -0.4306064484 -1.0174163351
C 0.8665909823 -0.1491774346 -0.8303476556
C 1.1259162542 1.2334716799 -0.2622632761
O 2.160818327 1.5441347767 0.2515062343
H 0.0074807685 -0.4884875419 1.5245188953
H -1.5439635185 -1.2916511321 1.8674446296
H -1.5025896277 0.4323354129 1.6887851447
H 1.3506135994 -0.890628338 -0.1946059297
H -0.8483797984 -0.4855847744 -1.9815493863
H 1.3578590243 -0.1938177481 -1.805664438
H 0.2880636396 1.9534146261 -0.3708180838
