11
0
C -0.795965053 -0.4386248538 0.6891924284
C 0.5660219177 0.2406989863 0.4208841065
C 1.559111536 -0.5099824392 -0.3923215242
O 1.3253334181 -1.5487181753 -0.9491771987
C -0.6842404323 0.6613848824 -0.249370773
N -1.1322883553 1.4847893774 -1.0725512524
H -1.2591666527 -0.265897464 1.6529656737
H -2.1360388825 1.3580056666 -1.2000221269
H -0.8856728499 -1.4412276706 0.2840475842
H 0.9698877965 0.9151708989 1.1675282349
H 2.5546935574 -0.0339482086 -0.4744171525
