12
0
C -1.5407174862 -0.6586629128 -0.7746546619
N -0.6876564254 0.4650338198 1.4494972703
C 0.1876871566 0.157948852 0.590640857
O -0.1547482853 -0.4186191783 -0.5716955838
C 1.6742066965 0.3465260277 0.6620996505
H -1.6181251072 -1.1281585787 -1.7528038559
H -2.1008764573 0.2769275104 -0.7519927202
H -1.9352406282 -1.3175770289 -0.0001806969
H -0.2590058032 0.8878298299 2.2638140948
H 2.0092599908 0.9586595101 -0.1760508298
H 2.173098518 -0.6202210733 0.5831758769
H 1.9644738306 0.8244122221 1.5954885992
