11
0
O 2.1520115854 0.2093351724 -0.4091489925
C 0.8945270763 0.0835428116 0.1692219901
C 0.0297522948 -1.0073624739 -0.3485021748
N -1.1810753306 -0.575150806 -0.222303232
C -1.2109099425 0.792058656 0.2251493282
C 0.0343794161 1.291519181 0.3901316053
H 2.3482497003 1.1502270167 -0.3620089388
H 0.2677617069 -2.0139700732 -0.6625685295
H -1.9963538363 -1.1503200587 -0.3891473728
H -2.1902658544 1.2390951068 0.3207809627
H 0.964585184 -0.2630515329 1.2357553538
