13
0
C -1.9997597673 -0.5472043837 -0.0710650944
C -0.7840518135 -0.909723654 -0.4475110251
C 0.2819287803 0.0519106966 -0.8722541769
N 1.4707649155 -0.1667682251 -0.0458304816
C 1.5667898426 0.7084319877 1.0614751137
O 2.3042141921 1.0335185634 -0.0762540247
H 0.7254122844 1.3639300708 1.2854973006
H -2.7453242494 -1.2791016648 0.2142371718
H -2.298657452 0.4957679012 -0.0453962855
H -0.5093103712 -1.9605915968 -0.4614479452
H 0.576898725 -0.1419258151 -1.9066179237
H -0.0694683691 1.0878613949 -0.8047832733
H 2.1307502824 0.3497967247 1.9185286441
