14
0
N -0.6357741216 3.0567518091 0.2373330782
C -0.3845780478 1.8585032965 0.2069222696
C -0.1228332722 0.5929239822 0.0462919192
C 1.2737081176 0.0030383395 -0.0887385315
C 0.9733980615 -1.4559319531 -0.3041950138
C -0.3232411208 -1.7250456246 -0.2853820365
C -1.1728303368 -0.504686484 -0.0526692551
H -0.705867898 3.4528917336 1.17209181
H 1.8253230378 0.433491715 -0.9301548659
H 1.8856956805 0.1586547608 0.8054039586
H 1.7556684576 -2.1892833187 -0.4556564781
H -0.7538283129 -2.7099946417 -0.4170227968
H -1.8755236397 -0.3341945021 -0.8741158284
H -1.7696436054 -0.5989611125 0.8601307705
