10
0
N -1.2186889327 -0.9306580639 -0.1874924992
C -0.4579521785 0.186351083 0.3273636334
C 1.006784067 0.0403844357 0.2216522353
C 2.1873090171 -0.1343866352 0.1484033302
C -1.2020308162 2.3595922346 -0.875115303
N -0.8676545082 1.3841024788 -0.3355567342
H -0.9218973656 -1.1559240987 -1.1287551714
H -1.0662859863 -1.7441403803 0.3930401262
H -0.7145157341 0.303856233 1.3833149724
H 3.2401054374 -0.2785752869 0.0778074102
