17
0
C 2.8546751164 -0.3787343858 -0.7054590022
C 2.4676789535 0.9776796845 -0.2137855422
O 1.3446127328 1.3190941734 0.0602841573
C -2.6904028095 0.9829758079 -0.0618907695
C -2.5461772143 -0.0803941485 0.7111480307
C -1.4371220168 -1.0860682393 0.6007151301
O -0.4969985365 -0.8188643097 -0.4053076592
H 3.342961087 -0.2791071035 -1.678548392
H 1.9892655787 -1.0350588309 -0.7821752668
H 3.5965566898 -0.8043912811 -0.0244270234
H 3.2950445217 1.7054495943 -0.0991436707
H -1.9922809554 1.1942240853 -0.8632542002
H -3.511214412 1.6745595673 0.0805901195
H -3.2632834996 -0.2748701485 1.5057399581
H -1.8659019837 -2.0681283653 0.3771967027
H -0.9511324222 -1.1788179811 1.583658964
H -0.0220008302 -0.0025771188 -0.1875905363
