15
0
C -1.2716195887 -0.8232974321 0.326808796
C -0.3844518775 0.2947013907 0.7842997231
C 0.4460089727 1.1312627299 -0.1679549994
C 1.0449867916 0.3975918844 -1.3609349782
C -0.0415856075 -1.1209886581 1.1373285399
H -2.2388002716 -0.9344632027 0.7993548564
H -1.2567056422 -1.0986664045 -0.7198838849
H 0.2745382795 -0.0409272653 -1.9982510922
H -0.7857842715 0.8761839759 1.6080098197
H -0.1787621368 1.9526207567 -0.5336506688
H 1.2547721929 1.5983341849 0.4033988724
H 1.7201666671 -0.4024795335 -1.0509552101
H 1.623117042 1.0866365347 -1.9785377642
H -0.1666559686 -1.436716854 2.1648147615
H 0.7886144184 -1.5929671071 0.6278892289
