15
0
C 1.5650900354 0.1779009519 0.2745679993
C 0.0679241885 0.0898330738 0.0848993886
C -0.7403070642 0.8436059687 1.1123317521
C -1.851394939 -1.2944396293 -0.7369339338
O -1.7867388951 -0.1253114124 -1.3951054862
C -0.3479157705 -0.0652195881 -1.319395131
C -0.3754532921 -1.2953135594 -0.4559379418
H 1.8560532001 -0.2593677654 1.2315595907
H 2.1066832743 -0.3474506443 -0.5144671634
H 1.8843606556 1.2221613758 0.2707791261
H -0.4338401893 1.8919634923 1.1312948782
H -0.5667346074 0.4229277813 2.1042435726
H -1.8083136158 0.8026550162 0.9082480827
H 0.199721131 0.177031929 -2.2195782853
H 0.2735898883 -2.1547189903 -0.390279449
