15
0
O 1.531537167 -0.6170891209 -1.5434561206
C 0.767814882 -0.1458339786 -0.479358093
C 0.8924222151 -0.7681259976 0.8813547607
C -0.3688968667 -0.9547053502 0.0749501756
C -1.5323183319 -0.0117717751 0.3254975985
C -0.9729978455 1.3422521835 -0.0413722329
C 0.269495833 1.2611164538 -0.5012183814
H 2.4569807152 -0.459316932 -1.3474514824
H 0.8808927926 -0.1242833119 1.752918615
H 1.5276686625 -1.6424537073 0.9560580255
H -0.5512502097 -1.9441938338 -0.3213130729
H -2.397142347 -0.2633518695 -0.2955676363
H -1.8711670805 -0.0418120287 1.3656963868
H -1.5314617721 2.2612321852 0.085886855
H 0.8798341859 2.090378083 -0.8369443976
