9
0
N 1.6166855218 0.3612147767 0.395839097
C 0.6424526054 -0.4185742605 -0.0710534247
N 0.1763888553 -1.5635036094 -0.1861273407
O -2.1605329901 -0.532012278 0.9314953781
C -1.6814819164 0.1264006632 0.0620605413
N -0.5577188497 -0.2174703305 -0.7398161271
H 1.6657359309 1.3055438374 0.0583270041
H 2.4668282884 -0.0703709605 0.7129637375
H -2.1113354456 1.0817301617 -0.2881088654
