12
0
O 0.8741298852 1.4918520178 -1.2785260048
C 0.4239313651 0.6522066589 -0.3137490225
C 0.6731650446 -0.8456855299 -0.3264299927
C -0.6197283176 -1.0011971461 0.5378772299
C -0.8074448203 0.5100979035 0.463849926
O 0.3977954108 1.090089041 1.0242224699
H 0.564033813 -1.2784446459 -1.3198217577
H 1.616448339 -1.1594304202 0.1189860729
H -1.4055965496 -1.5581585924 0.0287541511
H -0.4790958501 -1.3922922002 1.545371363
H -1.7087638287 1.1046584968 0.5279906594
H 0.6781595088 2.3940334168 -1.0097030945
