12
0
C -1.1891039029 0.6616812988 -0.2315693443
C -0.5789592386 -0.6463817993 0.2663741105
O -1.4339760119 -1.704317302 -0.0961656873
C 0.8263380844 -0.8976214407 -0.0260589206
C 1.7310433839 0.1038501599 0.1534201804
C 2.6074958035 0.9417460234 0.2639301306
H -1.1770116155 0.6816892931 -1.3214955558
H -0.6354079307 1.5184381927 0.151048654
H -2.2248555603 0.7235414274 0.0999665475
H -0.508486293 -0.5892144519 1.379839004
H -0.8781001033 -2.4755637899 -0.2377546915
H 3.4030973844 1.6443483883 0.3510585726
