12
0
C -2.6813985603 0.3938091978 0.1412565823
C -1.4814603668 -0.1028699953 0.1676396009
C -0.2735249296 -0.5882423093 0.1945184401
C 0.9392939699 0.2515566142 0.0598077692
C 2.2080211476 -0.1464401246 0.6680508256
O 1.9939522044 -0.2905702074 -0.7237170036
H -3.2266909772 0.484216931 -0.7912017371
H -0.1241434866 -1.6573443265 0.3169415471
H -3.1703898723 0.7256870365 1.0499077104
H 0.7551717903 1.3102069128 -0.1032720358
H 2.2576475603 -1.0759141759 1.2292948399
H 2.9282205203 0.6146574468 0.9544474608
