16
0
C 2.0788336772 1.4399596979 0.5168440985
O 0.7071952653 1.395652727 0.8275831463
C -1.1757313574 -0.8529510013 -1.2525346191
C -0.1057567696 -1.6456989765 -0.5640705463
C -2.0792178603 0.033258198 -0.5266957651
O -1.0026512908 0.5636654592 -1.2972059835
H 2.4319618039 0.5075303141 0.0576974339
H 2.3243452337 2.269838069 -0.155910496
H 2.6248032441 1.5839108236 1.4496560315
H -1.5338797684 -1.2576924475 -2.1966654427
H 0.7763246098 -1.7297697922 -1.2019329551
H -0.4648544212 -2.6543141947 -0.350286575
H 0.1866463717 -1.1687226563 0.3722596559
H -3.0677596251 0.2474499957 -0.9199415311
H -1.9623939811 0.1392237721 0.5483126491
H 0.2093618683 1.2608340122 0.0091978986
