17
0
C -2.5213230175 -0.3028842213 -0.3921730641
C -1.5552525328 0.3642065468 0.2319938513
C -0.2107784195 -0.1431338531 0.4578929737
C 0.6202522539 -0.9783880694 -0.1829854628
C 1.7771809207 -0.6804743313 0.741654693
C 2.0535716535 0.8012833334 0.7310909867
C 0.8485075335 0.2675206313 1.4639433064
H -2.3639609245 -1.3089929294 -0.7655821802
H -3.5028139941 0.1312189494 -0.5367220337
H -1.102493522 0.3159579682 -2.85811982
H -1.7624589636 1.3539324863 0.6309117189
H 0.5647609354 -1.507478461 -1.125984277
H -0.7656158315 0.2801673338 -3.5230031403
H 2.4467759487 -1.3907556252 1.2042053539
H 1.91228289 1.360270779 -0.1872285629
H 2.87699747 1.1363303697 1.3543074418
H 0.7304115998 0.356295093 2.5345142154
