10
0
O 0.4977689381 -1.1854395812 -0.7320608568
C 0.5778177182 0.2458535411 -0.6514929306
C 0.9898533281 -0.5884397942 0.4495982442
O -0.0781805909 -0.256141578 1.2864911062
C -0.6000171276 0.6412980317 0.2493018175
O -1.8696142938 0.3498009745 -0.1482744885
H -1.8661256837 -0.5501796323 -0.4947585284
H 1.0873603863 0.7921891815 -1.4308017689
H 1.9269226426 -0.9268561057 0.8657083232
H -0.5734533175 1.6691629625 0.6093800821
