14
0
O 0.4740504088 1.4315783777 1.8832970393
C 1.1401996622 1.490741684 0.7016851115
C 0.7090557731 1.0505751865 -0.4745758977
C -0.6896691116 -0.8392650376 -1.2331460016
C -0.0763124523 -1.6014489157 -0.1040603035
C -1.1137702441 -0.5443226667 0.1231305959
N -0.5824526681 0.512407589 -0.7287078919
H 2.1077415328 1.9640891202 0.8006068374
H 1.3298940223 1.1828505341 -1.3502052109
H -1.2834793329 -1.1306520599 -2.0826659492
H 0.9516502174 -1.4003781393 0.1817682253
H -0.4008411473 -2.6305397724 0.0172009876
H -0.3783855139 1.0101901727 1.7424493542
H -2.1102651459 -0.5625670726 0.5330871036
