11
0
C -1.4280132814 -0.6281984278 -0.1986044612
C -0.3599832929 0.1280605255 0.0169812358
O -0.3708875403 1.3124888192 0.6908830225
C 1.0299023235 -0.1791133659 -0.4553812278
O 1.9630592975 -0.2051780669 0.6018357264
H -2.4168490265 -0.3358084455 0.1361434488
H -1.3326564817 -1.5678969556 -0.7221415065
H -1.2459048519 1.4763430966 1.0500201069
H 1.3133827881 0.5684530201 -1.2090915506
H 1.0479643125 -1.1603530508 -0.9267056206
H 1.8753567533 0.617980851 1.0886788264
