16
0
C 0.7096088513 1.2250419125 0.5686951537
C 0.0998080234 0.0469257391 -0.1853784551
C 1.1723080812 -0.906219889 -0.705559756
C -0.8959136845 -0.723852477 0.6993222914
O -1.9468809861 0.0676245904 1.1832446526
C -1.2851164303 0.9699332601 -2.1872475638
N -0.6453994269 0.5575177245 -1.3068528753
H 1.3585910661 1.8050200222 -0.0877539714
H 1.3014169021 0.8540083321 1.4068807455
H -0.0729535828 1.8749111376 0.9570665935
H 1.7310695434 -1.3243645255 0.1331451891
H 0.7261450263 -1.7248864011 -1.2713842285
H 1.8688516319 -0.3768923903 -1.3556742405
H -1.2702048047 -1.5880548401 0.1369003465
H -0.3568181067 -1.0953499129 1.5730023851
H -2.4945121037 0.3386387172 0.4415937335
