16
0
C 2.3639082997 0.2746582412 -0.2713750465
N 1.0094492218 0.2806349598 0.2351461311
C 0.4667889397 -0.7545359078 1.0280558379
C -2.0507434367 -0.5830593252 0.2892570908
C -1.5106924512 0.7788737228 -0.2531731967
C -0.1423883985 0.1299421239 -0.6635755458
C -0.5950794249 -1.0042822507 0.2178049544
H 3.0570734153 0.2128568096 0.5686093474
H 2.559323556 1.2032772154 -0.8106442164
H 2.5580846159 -0.5722837145 -0.942847056
H 0.7554915726 -0.9933346422 2.0449366231
H -2.5284211556 -0.5718538123 1.2678451479
H -1.3706855585 1.511921964 0.5393283073
H -2.0681835952 1.2200757617 -1.0794118894
H 0.0816151016 0.0579994246 -1.7268509299
H -2.694970702 -1.0947515701 -0.4266935593
