15
0
C -1.8692532265 -0.2257245493 0.1332821258
C -0.5912195609 0.538990245 -0.1311758169
O -0.0421417302 0.9715891255 1.1375237434
C 1.0694730828 0.2365926701 1.3512832987
C 1.4373793635 -0.5533521589 0.3476961512
C 0.5114821512 -0.3068640697 -0.8069375474
O 1.1423560925 0.3436415797 -1.8990372556
H -1.6601551864 -1.1279945976 0.7124500972
H -2.5751422058 0.3880003574 0.6926991981
H -2.3325927002 -0.5193044535 -0.8105244729
H -0.7827786099 1.4365374704 -0.7219677141
H 1.5303834264 0.3802282959 2.3192921686
H 2.2931275311 -1.2091763555 0.331150004
H 0.086486243 -1.217901085 -1.2331753378
H 1.7574263296 0.9885975254 -1.5408486423
