14
0
C -1.8297036458 -0.3733544355 -0.1336299932
C -0.4398973966 -0.0011638741 -0.5888355122
O 0.0240475895 1.229247696 0.011598698
C 0.7313169569 -0.771026173 0.0333343732
C 1.0736025466 0.5616797543 0.7141566062
O 2.3182991267 1.1211844637 0.5006916846
H -2.5459529467 0.3925977752 -0.4347203754
H -2.1348692064 -1.3234170647 -0.5784346727
H -1.8690336505 -0.4699232847 0.953482856
H -0.4074234641 0.0788413237 -1.6801249622
H 2.4599964757 1.194397743 -0.4475362354
H 1.49360123 -1.102225178 -0.6710826731
H 0.4676903386 -1.5926194491 0.6975952914
H 0.9220710463 0.5972887031 1.7959129146
