14
0
C 1.5268392942 -0.9714261982 -0.7478581542
N 0.3835318742 -0.2185065877 -0.3116357823
C 0.0814777489 1.0308956048 -0.7400626198
C -1.2568872353 1.3588130467 -0.1064366509
O -1.5352656635 0.2892016042 0.7751591095
C -0.6701023947 -0.7822088278 0.4926646294
O 0.7337636956 1.7291456596 -1.4808414924
H 2.134309078 -0.3191923476 -1.373091359
H 2.1219133908 -1.3071217042 0.1047268705
H 1.2252767842 -1.8445272013 -1.3337763658
H -2.0197108122 1.4502396468 -0.8878749324
H -1.2077336775 2.2957596546 0.4493165046
H -1.1968228766 -1.5822102616 -0.0507555096
H -0.2832642059 -1.1896530881 1.4328957524
