15
0
C 1.7410112616 -0.1171148774 0.986400819
C 1.2501051971 0.2232427789 -0.396783961
C -0.1236516992 -0.2991862327 -0.8171923954
C -1.2050990878 -0.0562489235 0.1994982531
O -1.3271441059 -0.9794057604 1.1986810649
C -1.9821728771 1.0179855348 0.1974777165
O 1.9082617431 0.8726738879 -1.1672411397
H 1.8040189408 -1.2021695898 1.1061138541
H 1.0410107743 0.2490889171 1.7395679857
H 2.723719658 0.3215047585 1.1419425128
H -0.3730906134 0.1797934186 -1.7614737212
H -0.0267227939 -1.3749304202 -1.013949376
H -0.857075296 -1.7814761145 0.9655740735
H -1.8636104875 1.7709514002 -0.5677634442
H -2.7341796142 1.1619002227 0.9610627579
