13
0
C 0.7587677957 -0.8853370971 0.855046166
C -1.8440523991 -0.8465326477 -0.7827731109
O -1.8818146041 0.2161594 -0.0315944487
C -1.027179113 1.3306784968 -0.256716625
N 0.2094206639 1.3497384529 -0.2834719817
C 1.146734478 0.2587579799 -0.0757141377
H 0.3470547205 -0.504712146 1.7912909062
H 1.6555260615 -1.4598716514 1.091540618
H -1.0738486568 -0.6513412934 -1.574826635
H 0.0331302425 -1.5804205361 0.4304734821
H -1.6312754674 2.2261002075 -0.3718962747
H 2.0508298099 0.7319283508 0.3117237765
H 1.4167504682 -0.1210555163 -1.0654907351
