15
0
C -1.9151737283 -1.1217093003 0.3289871941
C -0.4884439956 -0.719641869 0.0870785464
C -0.193092902 0.6761804286 -0.3233081538
N 0.0922854307 0.1718311946 1.0739476517
C 1.5588594219 0.2176607579 0.7701771508
C 1.2665129763 0.8267593344 -0.5866264641
N 2.0093233964 1.3749608845 -1.4370316087
H -2.4862792394 -0.2834583367 0.7290623924
H -1.9618095129 -1.9380882316 1.0514085002
H -2.3839820371 -1.4561926568 -0.5981855984
H 0.1553334732 -1.5030231145 -0.3082702507
H 1.4619671847 1.7929597863 -2.1877800793
H -0.9744794499 1.3941633485 -0.5437895122
H 2.0736286016 0.9144789989 1.4306722323
H 2.0530163803 -0.7552522247 0.7999079994
