16
0
C 2.1534926912 0.2899958827 0.8591737925
C 0.9382893419 0.6810775141 0.5489623276
C 0.0843003326 1.5673570915 -0.2438434985
C -0.5060889501 0.5111708272 0.695136289
C -1.2414722422 -0.7164036184 0.1895821192
C -0.7159846292 -1.2992627952 -1.1154455986
H 2.3211860097 -0.5210634469 1.5589225746
H 3.026346569 0.7664930528 0.4277106537
H 0.3464675757 -1.5405554078 -1.0443823375
H -0.0066838353 2.607498841 0.0475897959
H 0.0270527788 1.3952220761 -1.3127747697
H -0.9267502499 0.9205143745 1.6099815264
H -1.1919486579 -1.4813548258 0.9707270961
H -2.3001517806 -0.4637634167 0.0751799998
H -0.8486429134 -0.6068517114 -1.9489463595
H -1.2526410405 -2.2151854375 -1.3668886111
