15
0
C 2.1480675563 0.4380998695 -0.0596321734
C 1.2507699797 0.0275468009 1.0201851276
C 0.4527107375 -1.105387771 0.8744503428
C -0.8425758628 -1.379053861 0.6308691585
C -1.8558272866 -0.367207337 0.3118534088
O -3.005877127 -0.6872622508 0.0966254753
C -1.4309463841 1.0837075735 0.2713436451
H 1.5434509013 1.2330428935 -0.5300791598
H 2.364138978 -0.3010701023 -0.8374109015
H 3.0481053235 0.9382654314 0.2970592832
H -1.1934386274 -2.4016132325 0.6678934303
H 1.121616452 -1.9479786478 1.1120571974
H -2.3096502116 1.7143194854 0.386730049
H -0.702311056 1.3193826511 1.0557147383
H -0.9734093726 1.3041184972 -0.6967716214
