12
0
C 0.7602623337 -0.7138133712 -0.2269720414
C -0.412598617 -0.7586502293 0.5719022538
C -0.5837272912 0.8687105967 0.4009620782
O -1.9402803095 0.856151406 -0.1725393388
C -1.2237989031 -0.2090416522 -0.6733100788
C 0.2233515072 0.3844011001 -0.9473584036
H 1.7103386667 -1.224337685 -0.2128229049
H 2.0463009084 0.9067941906 1.5754822379
H -0.7613181194 -1.3828728573 1.381790349
H 1.3752440508 1.2461462279 1.5462437582
H -1.6575188653 -0.9038660803 -1.3814383592
H 0.5565006388 0.9898163538 -1.7777865504
