11
0
O -1.5701243021 -0.0919619258 -0.4818816902
C -0.667456985 1.1706072264 0.1477386005
C 0.6747855541 0.5079828113 0.1553791498
C 0.9928991519 -0.90418034 0.4022635414
O 0.8909305892 -0.4039240659 -0.9445629832
H -0.8398263883 -0.4686257997 -1.0442426901
H -2.1406956882 0.409885642 -1.0707738247
H -1.0552190941 1.1844461374 1.1745462021
H 1.4833314561 1.2202997069 0.3076429945
H 0.2063970374 -1.5954706754 0.6926860158
H 1.997108669 -1.2031927172 0.6865256841
