13
0
C -0.6962847841 -0.3449763259 -0.0383412427
C -0.2549529927 -0.3624239138 -1.4680381308
O -0.5295714342 0.738693012 -2.2768901652
C 0.7607109565 -0.1498162566 -0.4079826572
O 0.8770349869 0.0736222088 2.9282355989
H -1.2417434653 0.5307744365 0.2896771051
H 0.5555904225 -0.0618914965 2.0324789985
H -1.0003742983 -1.2769138141 0.4205773047
H -0.2518844285 -1.3194760183 -1.9825383856
H -1.4578129853 0.7156879309 -2.5176127925
H 1.4664987851 -0.9425624381 -0.1977078535
H 1.1565566046 0.8549392773 -0.3355101984
H 1.5227926329 0.7774803977 2.8567464188
