9
0
N -1.387255171 0.5705883593 0.4167715259
C -0.5168262874 -0.3863294896 0.638904134
O -0.8126749183 -1.6123869821 0.8601555268
C 0.9041520411 -0.4479077571 0.7152742865
C 0.8920277012 -1.7942394806 0.9735371262
C 2.6968104125 1.3165955539 0.4561467291
N 1.8875374772 0.484506879 0.5807403835
H -1.0778155846 1.5124796354 0.2501897546
H -2.3722996706 0.3606602819 0.4122125334
