18
0
C 1.8505495707 -0.6312785925 0.0549067042
C 0.5580418173 0.0726021812 0.4548767662
C 0.5601836566 1.5286847458 0.0019782052
C -0.6721120018 -0.7100671292 -0.040981688
C -2.0050672869 -0.1617255158 0.4542592319
C -0.6858975619 -0.7987833011 -2.6347811435
N -0.6833634843 -0.772800259 -1.4719697217
H 1.8601049388 -1.6715080652 0.38859675
H 2.7131530975 -0.1303894184 0.4971082058
H 1.9799627109 -0.6246704883 -1.0295782794
H 0.4804617629 0.0492681832 1.5478666644
H 1.4476888281 2.037090326 0.3817900582
H -0.3116588957 2.0752275816 0.3638119016
H 0.5778385916 1.5977947244 -1.0881933396
H -0.5671713054 -1.7421332718 0.3062565248
H -2.8217513107 -0.8166719288 0.151601403
H -1.9963228408 -0.0986069979 1.5434279351
H -2.1981372869 0.830532226 0.0473718218
