17
0
C 1.5315225709 -0.4554505076 0.950678708
C 0.1208857016 1.2078353289 -1.7366936809
C 0.5214145993 -1.4017232677 0.3143344907
C -0.5271234937 -0.7265574503 -0.5536130048
C -1.3182208407 0.410604541 0.079574648
C -0.7019754008 1.6632585906 -0.5591619117
O 0.1641744187 -0.0815364772 -1.6962115387
H 1.0533047733 0.2628666624 1.6202686872
H 2.0834365529 0.1028458336 0.1921955516
H 2.2571620392 -1.0158077794 1.5410323654
H -0.0093713969 -1.9637267868 1.0888285906
H 1.0444357147 -2.1389996773 -0.3001018448
H -1.1676660601 -1.4831691976 -1.0071605039
H -1.2340998259 0.404464207 1.1658295721
H -2.3756703529 0.3274627848 -0.1698632742
H -1.4285066057 2.4079948377 -0.8871142571
H -0.0070743939 2.1947473579 0.1007084027
