15
0
C -0.6979242356 -1.3068171811 0.7326381454
C -0.2808370724 -0.1389728393 -0.1622242337
C -1.1325748123 1.1029328088 0.1019617525
C 1.1866835222 0.1689450908 0.0130454078
O 1.478646175 0.5630129586 1.2678616653
N 2.1143573127 0.0974557327 -0.8417298173
H -0.5770813288 -1.0482439631 1.785511274
H -0.0986707716 -2.196276485 0.5305279756
H -1.7464381337 -1.5557883507 0.5593918427
H -0.4102484577 -0.4353164906 -1.206677768
H -0.8424257112 1.9298031916 -0.548561283
H -2.1854944208 0.8807170427 -0.0810632624
H -1.0271733113 1.4306042488 1.13694557
H 1.7621957167 -0.2116377407 -1.7402385429
H 2.4281735289 0.7330389765 1.2854162739
