13
0
O 2.53062777 -0.3302089367 0.9533529497
C 1.2345831889 -0.2721177093 0.8814797657
C -1.4196676372 -0.7983298949 -0.2699944456
N -0.6150947218 0.3110829835 -0.7470078415
C -1.5451164195 0.5426201242 0.3422498834
C 0.7966894213 0.2979612197 -0.4356201821
H 2.9949448172 -0.0196760421 0.1475465025
H -0.9269865819 -1.5558494627 0.3319098331
H -2.1702244914 -1.1576956212 -0.9640383668
H -1.1338707531 0.6542130825 1.3404359597
H -2.3883277643 1.1789166701 0.1005969934
H 1.322695115 -0.2288293988 -1.2486412827
H 1.1591600568 1.3384309857 -0.4530297687
