10
0
O -2.9211938176 0.541659412 -1.4480349525
C -2.0191912677 -0.2278991551 -1.3702537866
C -0.3792521372 0.0518898036 0.3535405646
N -1.3135042388 -0.4783453202 -0.1742980931
O 2.2400708175 -0.8013560285 -0.1747494105
C 2.0075588038 0.0480214393 0.6489816703
C 0.6708726635 0.5574369782 0.9704687913
H -1.6727321165 -0.877980655 -2.1864488733
H 2.8234761393 0.5129573353 1.2330468672
H 0.5279341538 1.3435001905 1.6988092225
