12
0
C 1.4661945139 -0.5357465783 -0.4746149819
C 0.5443414863 -0.825553564 0.6280209857
C -0.8336515817 -0.3896626738 0.3290283079
C -0.9110712695 1.0022249219 1.0018379798
H 2.5045819878 -0.3994912144 -0.1721879358
H 1.1551202224 0.2119058631 -1.2198277571
H 1.4352855455 -1.5210841599 -0.9781829173
H -0.7000276791 0.9328062543 2.0687847066
H -1.5754925904 -1.0353512659 0.8025789212
H -1.0684517767 -0.2758270628 -0.7407425644
H -1.914438925 1.406022474 0.8689216299
H -0.2028299334 1.7030250057 0.5565596254
