8
0
N 1.5997824385 0.7610575145 -0.179931131
N 0.4856727901 1.1013538937 0.1891168334
C -0.625020385 1.4887686087 0.3754735118
C -0.8579728146 -1.771437421 -0.4086840504
N 0.208896765 -2.1004261322 -0.1600019693
H 1.723553287 -0.2361618981 0.0160711266
H -1.0098750754 1.9336784365 1.2800320526
H -1.8518120057 -1.4561150023 -0.6441733737
