13
0
C -1.3660101762 0.5132273741 0.3228218658
C -0.4571368317 -0.6602630158 0.5453851574
O 0.7288410849 -0.7917821896 -0.3201653144
C 0.7810553272 -0.5360488465 1.3421500452
C 1.1527652902 0.3308326867 -1.0953240089
H -2.1224596546 0.4848344829 1.1100339744
H -1.88705129 0.4610328494 -0.6361844751
H -0.8361304072 1.4598611882 0.4131731415
H -0.9882785383 -1.6114431956 0.4701115826
H 1.0703282978 -1.5495259338 1.6544988106
H 0.4414982087 0.5003520821 -1.9050792969
H 1.2571505724 1.2107578619 -0.4644188405
H 2.1227361166 0.054810656 -1.5037376418
