15
0
C -2.0123997196 1.2613958685 -0.0275287032
N -1.1087127294 0.3931129847 0.0654239417
C -1.4942900668 -0.9706011813 0.3508244824
C 1.7025711174 -0.3728407494 -0.8492183545
O 1.5125789342 -1.5388302133 -1.0723952542
C 2.2822383126 0.1651939412 0.422036483
H -3.0780487871 1.0332095294 0.1026918853
H 1.4523173332 0.3897953907 -1.6134592439
H -1.7440468134 2.2933708235 -0.2469749107
H -1.1493399721 -1.6119415671 -0.4614683625
H -2.5764112591 -1.0957774186 0.485492055
H -0.9780465441 -1.3034103857 1.2531982832
H 2.5015629958 -0.6415133362 1.1192603806
H 1.5639119043 0.8614395143 0.8597190551
H 3.1935542939 0.7267087996 0.1995562626
