15
0
C -1.4034612706 1.1966086475 -0.5389847138
C -0.5760872477 0.0300525398 -0.068639379
C 1.0902927594 -0.5313591103 2.4519337235
O 1.5502074745 -0.4883496599 1.2461752955
C 0.889309103 0.1836629849 0.1682443282
C 0.4055579019 -0.6679139641 -0.9636409777
O 0.4671399112 -2.0479728525 -0.8326986387
H -1.7201620877 1.8160700264 0.3019398288
H -0.8382839142 1.830640507 -1.225071997
H -2.2952940357 0.8501076201 -1.0635931969
H -1.0697821119 -0.6616035111 0.6064586241
H 0.1042823411 0.003803534 2.4456643209
H 1.3792110448 1.124886574 -0.047680358
H 0.5522931227 -0.2878258567 -1.9723979656
H 1.3840060092 -2.3132894788 -0.7277728942
