15
0
C -1.6131120025 -2.3269520827 -0.1251378074
C 0.1135643336 0.7578139256 0.8409667261
C 0.6510450882 1.7182310189 -0.1961590422
C 2.0915962857 1.5667802412 -0.3994366044
C 3.2717522031 1.4325218716 -0.5491887161
C -0.8547191468 -0.0809898655 0.6147028171
C -1.8155564274 -0.9268560386 0.3800536876
H -0.5562959332 -2.5371484359 -0.284667551
H -2.1423820666 -2.475621445 -1.06915608
H -2.0074421149 -3.0548294149 0.5878402437
H 0.579837308 0.7855819755 1.8215793334
H 0.1304204885 1.5673317864 -1.1434599627
H 0.4501584804 2.7474382803 0.1171688861
H 4.320108874 1.3122883653 -0.6872702343
H -2.83749237 -0.603953182 0.564211304
