14
0
C -1.4908828931 -0.843478384 0.0921381396
C -1.29595138 0.3806219228 -0.8568219041
C 0.1119120643 0.3877073472 -0.3682460054
C 0.0064400907 -0.794574679 0.5174809429
C 2.364995421 0.9458380537 -0.3302831868
O 1.1151548077 1.0811187539 -0.7277166179
H -1.7811119781 -1.7603299775 -0.4171901018
H -2.1860353892 -0.6579852936 0.9087202302
H -1.9031742281 1.2568539849 -0.6130918004
H -1.4277198383 0.1578351508 -1.9202719676
H 0.6167520518 -1.6537119962 0.2056744149
H 0.1989342386 -0.6227514825 1.5833110367
H 3.033284984 1.7024822443 -0.6980791483
H 2.5860350486 0.2463413553 0.4617009679
