10
0
C -1.3871182628 0.3791781524 -0.0669132759
C 0.4524009496 1.3548500381 1.2504055858
N -0.0947169554 0.5603906289 0.5411163477
O 2.5926203859 -1.3521903739 0.5135412635
C 1.7018084482 -1.7684209284 -0.0931905661
O 0.8233160561 -2.2058870948 -0.7070297132
O 1.0812885727 2.0588848331 1.9339063597
H -1.6214453954 1.20911784 -0.7348798405
H -1.3726787748 -0.541508552 -0.6458185648
H -2.165274024 0.3004314565 0.6935534039
