17
0
C -1.5925856415 -0.536388161 -0.6863989395
C -0.7014680365 -0.9501131684 0.4649022683
O 0.6165146404 -1.2991966566 -0.0543865361
C 1.6897342963 -0.6126895522 0.1502094214
C 1.9636178395 0.5456792844 0.8661606341
C 1.014575209 1.2787864042 1.5759115164
C -1.1647241091 0.7604983124 -1.3613094622
H -2.5981327107 -0.4257932264 -0.2693125582
H -1.6471999522 -1.3494933876 -1.416521692
H -0.5826117133 -0.1576723048 1.2037207621
H -1.0548741583 -1.8758623042 0.9195338872
H 2.5238489795 -1.0973211051 -0.3586285292
H -0.1798339793 0.6627025847 -1.8230657756
H 3.0255418348 0.800980986 0.8044969622
H 1.5306332371 2.1206043371 2.0655943016
H -1.8690725343 1.0362947579 -2.1473963496
H -1.1099702012 1.5762661997 -0.639249911
