14
0
O 2.1363742436 0.125815584 1.496786337
C 0.8569886093 0.1756883862 0.9619519181
C 0.5825259547 1.1647699788 -0.112180381
N -0.1460055608 0.5461198395 -0.9985933111
C -0.3637443845 -0.8020926795 -0.7989769658
C 0.3833560627 -1.1632724042 0.3450898905
O 0.6970595423 -2.2326138771 0.8454055532
H 2.2868792511 -0.8106134488 1.691694907
H 0.0937583058 0.3876570186 1.7399925851
H 0.7802682007 2.2230623789 -0.1575495748
H -2.9623979785 0.1860055765 -2.2654309502
H -0.5557450967 1.0285319576 -1.7859762497
H -2.9774650446 0.5393059217 -2.922212758
H -0.809098105 -1.404465232 -1.5709460005
