15
0
C -2.2066589513 -0.4937890474 0.6557981589
C -0.953749283 -0.2234265881 -0.1359749269
O -0.9693149224 -0.08700033 -1.3340367186
C 0.3424042552 -0.1292903207 0.6450941131
C 1.5725227212 -0.1370156682 -0.2452045704
C 1.6490342441 1.0354462406 -1.1960648332
O 2.3735969425 1.0686632486 -2.1494780521
H -2.2514367476 0.1365177529 1.5460921431
H -3.0841555789 -0.3330720832 0.0338642938
H -2.1945664297 -1.5323861947 0.9969593984
H 1.0134292194 1.9101683973 -0.9393778767
H 0.2932691409 0.7925628391 1.2381584377
H 0.3777898801 -0.9407640639 1.3768395155
H 2.4770549329 -0.0993674011 0.3704257928
H 1.6326095768 -1.0498627812 -0.8397128754
