14
0
C 1.3859005175 0.4604739731 -0.3696439285
C 1.2363559694 -1.0796860558 -0.3616586928
C -0.2478773077 -0.9245491031 -0.034051964
O -0.4421111904 -0.7139062819 1.3925068324
C -0.4207453083 0.6127177297 1.3421131526
C -0.1540193435 0.6050851488 -0.1566963907
H 1.9850519982 0.8875823652 0.4350543784
H 1.7325173365 0.8681905599 -1.3166020463
H 1.8178185537 -1.6465140719 0.3643062634
H 1.3780939011 -1.5146402898 -1.3509856706
H -0.999730502 -1.5911698924 -0.4501824186
H -3.6361082441 1.5123288214 0.8251486206
H -3.0007544235 1.5228402161 1.2172563547
H -0.7243919567 1.2540848805 -0.8127734905
