9
0
O 2.2314955735 -0.7809610339 -0.4618594146
C 1.0804382787 -0.4817386324 -0.3176515676
N 0.6334969013 0.7620735127 0.1787913813
N -0.7265270438 0.6190146752 0.446161857
C -1.0572263465 -0.5611445079 -0.158739355
N -0.0674718138 -1.2563185146 -0.5842543594
H 1.1782078574 1.171090706 0.9226446538
H -1.2937032476 1.433546409 0.2573761299
H -2.0986401593 -0.8482016143 -0.2397543253
