12
0
C 1.6113791803 0.1065556969 0.1013167654
C 0.3494457895 -0.5883717848 0.506006357
O -0.4173935485 0.0944832155 1.4950415396
C -0.8546932112 1.2679283617 1.0670375131
O -0.4409150405 1.4384164651 -0.1791090215
C 0.3346440166 0.3362586126 -0.6444833515
H 2.3602726737 -0.4969226158 -0.3941448838
H 1.9870483176 0.8999808741 0.7344129032
H 0.2053024163 -1.657723348 0.5013537331
H -2.7351114611 -1.1421387201 -0.9830274328
H -2.7574752967 -0.4871988826 -0.6280098971
H 0.1763641641 0.0986191253 -1.6850172247
