11
0
O -2.3457801309 0.5117878825 -1.2210180997
C -1.7584846527 -0.0575603811 -0.3450565026
C -0.4047086503 -0.7086335604 -0.5112936256
C 0.5232360977 -0.3580324846 0.6228221424
C 1.5470868231 0.4417352968 0.4769765698
N 2.5674047912 1.0844363201 0.3087693772
H 2.4834218388 2.0900096839 0.4295229595
H -2.1975373233 -0.1341993083 0.6729187812
H -0.5637386851 -1.7930960637 -0.5331518764
H 0.0041285365 -0.4139508981 -1.4774201745
H 0.3422583548 -0.756933487 1.6138624487
