16
0
C -1.7429127552 -0.0448939509 2.01355451
C -1.639833664 0.222178427 0.7217269783
C -0.6441008251 1.1771781501 0.130695128
O 0.1110793838 0.6090151274 -0.9141638669
C 1.0384492214 -0.3637047389 -0.4829467954
C 1.8212781937 -0.8402393184 -1.6840567241
H -2.4943267495 -0.7245572953 2.3969331758
H -1.0791287242 0.414991228 2.7390379129
H 1.1532763694 -1.287118636 -2.4216926736
H -2.3076515845 -0.2567781483 0.0097361023
H 0.0166782905 1.5651690492 0.9195596913
H -1.1663391519 2.0269438432 -0.3161480129
H 0.5194272079 -1.202707253 -0.0014740308
H 1.7108245512 0.0760744523 0.2688877601
H 2.5574202778 -1.5888750803 -1.3862028188
H 2.3435939587 -0.0070178563 -2.1559763362
