13
0
O -0.1202169086 -0.2826215549 0.6730738777
C -0.5861018164 0.8232134964 -0.0966476302
C -2.0970481951 0.8626932528 -0.1857403533
N 2.6241218353 -0.9054370424 0.1817579665
C 3.1082571563 -1.8834904795 -0.3207922558
O 3.6856095399 -2.7757598026 -0.797860111
H -0.4509936808 -0.2048391121 1.5702527601
H -0.1440907087 0.6913193196 -1.085053944
H -0.1937852258 1.7592787113 0.3157634627
H -2.4817532318 -0.0662056614 -0.6085814577
H -2.4180728608 1.6917832768 -0.8190766746
H 1.6442224432 -0.7212619667 0.3969114674
H -2.5474933468 1.0041345626 0.8002228921
