11
0
C -1.5613676092 -0.3022395793 0.4400444337
C -0.2714495855 -0.1329786377 0.135519737
C 0.8302473863 -0.982001564 0.4664414002
O 1.9263523258 -0.4875895358 -0.0023629576
N 1.8323573674 0.6525136566 -0.6653584476
C 0.4078304048 0.9799678991 -0.6335263403
H -2.312919515 0.4138983401 0.1354670754
H -1.8944280951 -1.1640909202 1.0037148458
H 0.031901156 1.0649200856 -1.6592404641
H 0.9030251344 -1.9113630943 1.0063595171
H 0.2720440301 1.9576753499 -0.1581517995
