14
0
O 2.1824234018 1.1161350223 -0.7605728122
N 1.8238705605 -0.1041249557 -0.1491405891
C 0.4562444171 -0.3165354525 -0.1966022037
C -0.3571663382 -1.3648504948 -0.357455788
C -1.608108528 -0.5786093861 -0.0202316788
C -0.6570072506 0.6576228762 0.0972932045
O -0.6157412224 1.3624275482 1.3102667279
H 2.476157297 1.6618052102 -0.026972275
H 2.3561849217 -0.8321788101 -0.6071450613
H -0.1976862033 -2.3989867817 -0.6326455409
H -2.0789172727 -0.8246558618 0.9347058368
H -2.3821378615 -0.5195198662 -0.789582507
H -0.8133107011 1.4020647436 -0.6835712166
H -0.42422722 0.7382262085 2.0146759034
