14
0
C 2.1989587859 0.6884303964 -0.3117743175
O 0.8094730768 0.5052931769 -0.2957691412
C 0.3892858642 -0.3437671659 0.7385517568
C -1.0953008878 -0.5192233686 0.7065221077
C -1.8861451681 0.0490516174 -0.1919347207
O -3.2349966642 -0.0778475738 -0.2687485511
H 2.4320847796 1.3608482931 -1.1360350975
H 2.7274034715 -0.2618424525 -0.4650489423
H 2.5566508001 1.136500936 0.624812646
H 0.6989640595 0.0699269507 1.7122020452
H 0.8851680184 -1.3237833813 0.6445469426
H -1.5133558759 -1.1592874118 1.4797485908
H -3.5437653147 -0.6530642574 0.4358604542
H -1.5001719453 0.6905292406 -0.9728807731
