14
0
C 0.5591526144 2.1089040224 0.8725011619
C -0.9358261344 0.2283355436 -0.0258454824
C -1.5315748327 -2.0434862316 -0.932519892
C -0.6682189499 -1.1364263041 -0.4836560794
N 0.7222615495 -1.3947960757 -0.3821121451
C 0.2442990619 0.7565631228 0.3333671522
C 1.2308637207 -0.3113688114 0.0837466239
H 1.25933923 2.6373922319 0.2212401308
H -0.3420761977 2.7146239764 0.9641864621
H 1.0249139619 2.0386497334 1.8584374751
H -1.9094652004 0.6963466905 0.006617423
H -2.5898440439 -1.8242304397 -1.0009987011
H -1.1846572429 -3.0217927552 -1.2390571968
H 2.2980274636 -0.2231417034 0.2665120678
