13
0
O 0.189694547 -0.2114502934 2.3318012487
C 0.7999481122 -0.7528226698 1.4496190165
C -1.0386026295 -0.7987556552 -1.4580769304
C -1.3967897436 0.2391557379 -0.7598471844
C -1.7412055573 1.2692458709 -0.0489926362
C 1.8577491234 -0.1032558001 0.694895052
C 2.7416370233 0.3981168039 0.0605781415
H -1.4444447842 1.3448228817 0.9915790284
H 0.5971247034 -1.7966267086 1.1578380404
H -1.6666749647 -1.6803202468 -1.511043644
H -0.1062509172 -0.8015851102 -2.0109181315
H -2.3268298897 2.0729605355 -0.4789053653
H 3.5256209768 0.8600086542 -0.4935616358
