10
0
O 2.1209885649 -0.0411057229 -0.2232221191
C 0.8002742838 -0.1545721391 -0.1271081103
C -0.2104026616 0.8598206115 0.2862777395
C -1.1341455625 -0.3535614879 0.0046053582
N 0.0610006427 -1.1659136016 -0.3672635016
H -0.1490391439 1.1965680334 1.3205194373
H -0.3180773159 1.7164580502 -0.3781193965
H -1.6587290969 -0.7517820127 0.8735776916
H -1.8334713539 -0.2266809211 -0.8222857488
H 2.4674296431 -0.8917098097 -0.5203623504
