13
0
O -1.0972482267 -0.6371562509 1.4510858429
C -1.0494305995 -0.181195133 0.1111713664
C -0.2868875483 1.1355678087 0.0016293421
N 0.8103695951 0.5170017888 -0.7532559107
C 1.2523736666 -0.7361718098 -0.1585458817
C -0.0495817481 -0.8851833514 -0.8600230573
H -1.4650553506 -1.523326275 1.4483947056
H -2.0603417756 -0.132869426 -0.299340938
H 0.0353156649 1.5850503778 0.944098565
H -0.7927259109 1.874856495 -0.6154984318
H 1.3568552139 -0.6947117751 0.9248706709
H 2.1171242985 -1.1490506978 -0.6675987796
H 1.271477721 0.9438182486 -1.5382544939
