10
0
O 2.1039646177 -0.1126185113 -0.4078540592
C 0.8049990422 0.1485031064 -0.4000715198
N -0.1835702705 -0.7151490576 -1.0409403071
N -1.1417222031 -1.1240197503 0.0297040412
C -1.1506638479 0.2220198557 -0.4585871006
C -0.0258865997 1.0647188972 0.0979424123
H 2.2526772012 -0.8942645904 -0.9504714617
H -0.6393423121 -1.1492806764 0.9160429866
H -2.0042129044 0.5586080633 -1.0322818011
H 0.0366062765 1.9521656635 0.7030478093
