15
0
C -0.9306027895 0.2003527831 -0.9455148181
O -0.1336320962 -2.0323179624 -0.0324769755
C -0.1143334629 -1.0114303965 0.960933524
C 0.9117901678 -1.0649034735 -0.0655353516
C 0.6093389209 0.2197661676 -0.8529874465
C 0.4085039668 1.2016755717 0.3420497979
C -0.8351845672 0.2943885113 0.5916180833
H -1.3138220677 1.1243868117 -1.3756951866
H -1.4135740555 -0.667963504 -1.3845267858
H 0.0057146743 -1.3372412391 1.9867774284
H 1.9190594174 -1.4381394508 0.0721590049
H 1.2421048532 0.4572844666 -1.7051695025
H 1.1814212617 1.2271597405 1.1135231441
H 0.1490381185 2.2142508235 0.0305485992
H -1.6737733416 0.6077081502 1.2093864848
