18
0
C -1.451539804 -0.4160584169 -1.1725503804
C -1.1302569102 0.4144577887 0.0617567447
C 0.3438839142 0.3970649486 0.4603569645
C 0.6155534061 1.3809702676 1.596918063
N 0.7513336214 -0.9738229959 0.7641626769
C 1.6397507678 -2.2993877729 -2.0329151381
O 2.025776078 -1.2883677837 -2.3397232953
H -0.8986668753 -0.0516275893 -2.0419734698
H -1.1815023806 -1.4616743578 -1.0215329152
H -2.5155373674 -0.3677292117 -1.4116248391
H -1.4304258181 1.453636963 -0.1024681009
H -1.7235991265 0.0602226586 0.9144617954
H 0.9314667427 0.7074333145 -0.4121981039
H 0.356481035 2.4037225301 1.3122898585
H 0.0263543449 1.1183444203 2.4808627521
H 1.6704878191 1.3696656522 1.8813103332
H 0.2230801634 -1.3300077539 1.5524551359
H 1.7281133896 -1.0061826612 1.0263609185
