8
0
C 1.8577203654 -0.025798532 -0.5561138351
C 0.8667196712 -0.7277797895 -0.2185890403
C -0.5750797526 -0.9145108729 0.0688007928
C -0.1933807272 0.4341860523 -0.3172170391
N -0.5585432198 1.592616212 -0.5317423281
H 0.1889637248 2.2216006085 -0.8072692543
H -0.8417408854 -1.0792274475 1.1080945916
H -1.1401461764 -1.4987412308 -0.6506548874
