16
0
C 1.9576056319 -0.4482214774 0.0180628873
C 0.6541590478 0.230489624 -0.3594606797
C -0.6492867194 -0.2888024338 0.3399610588
C -1.7540804054 -0.8129845215 -0.5591051169
C -0.7793440218 1.121934069 0.8769404481
C 0.3334948689 1.559051592 0.2943352822
H 2.0746863494 -0.4860016221 1.1040354389
H 2.8164127983 0.0873377766 -0.3929093708
H 1.9913310285 -1.4718562124 -0.3629578331
H 0.5405507422 0.2511861206 -1.4486914205
H -1.4612033765 -1.7547222977 -1.029793893
H -0.4179940017 -1.0235826082 1.1185330481
H -2.6713879767 -0.9949099974 0.0057518239
H -1.9850720338 -0.0949281083 -1.3497575545
H -1.5271611957 1.5922009987 1.5051325828
H 0.845649264 2.514235098 0.2845722985
