11
0
C -1.1999535452 0.4476090423 0.5214061003
C 0.127010837 1.023259224 0.3133516347
N -0.7063795019 1.7601810366 1.075236049
O 1.2469464253 0.9487803956 -0.0934113205
C 1.1745028852 -1.6515485931 -1.138641385
O 0.1717727159 -2.1365662883 -0.6937746533
H -2.0032863686 0.5444526302 -0.1980226052
H -1.2535305482 -0.4157542268 1.1771363166
H 2.1409237311 -1.7129735001 -0.6082547912
H -0.5559676358 1.9331081203 2.0591108829
H 1.1887240052 -1.1226738407 -2.1082512282
