12
0
C 1.1974619546 -0.7535444341 0.2451265328
C 0.4489728474 0.37723959 0.9323372441
C -1.4849445587 0.115941277 -0.6696281919
C -0.8967403722 0.709737584 0.3578053502
H 2.160879222 -0.9251646148 0.727449104
H 1.388196008 -0.5239059059 -0.8054581295
H 0.63353214 -1.6878489712 0.285752545
H 1.0585917479 1.2877935119 0.9172573644
H -1.02060549 -0.702996769 -1.2073391516
H -2.4628935023 0.4310393403 -1.0122843807
H 0.3162662031 0.1424651276 1.9946008883
H -1.4191271998 1.5253092641 0.8533058248
