14
0
C -1.6077958218 -0.9606753363 -0.6142618154
C -0.5701578798 -0.1115631543 -1.2772019031
C 0.5278564381 0.8871057071 0.7783153449
C 0.3246071024 0.6807888316 -0.6973040947
C 1.6816043017 0.0404192221 1.2650823459
O 2.6799608041 0.46968307 1.7708037396
H -1.4385014372 -2.0163665112 -0.8411108239
H -1.6194709879 -0.8521668404 0.4698392418
H -2.6031666437 -0.7122149043 -0.9903865721
H -0.5612646969 -0.1542931873 -2.363240375
H -0.3594346593 0.5869764413 1.3424974885
H 0.7460017809 1.9309566539 1.0066071404
H 1.0154623912 1.2227403205 -1.3359509817
H 1.5499403082 -1.0511993126 1.1043852648
