13
0
O 1.523690857 1.3792075714 -0.2842103729
C 0.6749475091 0.309873687 -0.087776972
C 1.9686276795 0.299597246 0.5642798618
O 0.3357448564 -0.4995509143 -1.1933547311
C -1.0530201953 -0.3273015938 -0.886899133
C -1.3643566634 -0.9233782656 0.4358076722
C -0.7528598393 0.4556868378 0.356579791
H 2.0591329586 0.5451562777 1.6179961869
H 2.7618174217 -0.3075804895 0.1397247497
H -1.7405176188 -0.1589631475 -1.7030651876
H -0.7756043393 -1.7617066661 0.7894708989
H -2.4111876224 -0.9365182945 0.7146179507
H -1.1976890035 1.3539107516 0.7551662853
