12
0
C 2.2590819736 -1.2586864568 -1.1111127767
C 1.365005942 -0.6855760357 -0.5606843119
C 0.2879270062 0.0339464756 0.0887354466
C -0.8211720775 -0.6920060858 0.8090756723
O -1.7362841375 -0.224005176 -0.0345318627
C -0.8541174216 0.4838373968 -0.7844798536
H 3.0522024311 -1.7739389879 -1.5992724876
H 0.6626572605 0.8230292109 0.7501441284
H -1.0730721733 -0.8062959562 1.8574249537
H -1.3209265794 2.0301272015 1.8297269123
H -1.3365852945 2.156399502 1.0903012517
H -0.9618929298 0.4407099117 -1.8619100726
