17
0
C 2.3806995856 1.5086758221 -0.1609960512
O 1.4591787241 1.4304212444 0.902974174
C -0.604772135 -0.5660234115 -0.5846226082
C -0.2961743106 -1.6587922422 0.4236859139
O -1.7023264215 -1.9562092706 0.5874352318
C -2.0283632883 -1.0032257577 -0.4115289615
C -1.640195276 0.3666943277 0.0116931017
H 3.3279116165 1.8515916427 0.2543421984
H 2.5482200088 0.5345253678 -0.6363721826
H 2.0664779829 2.2244540142 -0.9295852046
H -0.0489740718 -0.3445814264 -1.4838686705
H 0.1833368631 -1.361109617 1.3595740071
H 0.2216014283 -2.515415109 -0.0121906704
H -2.8078775972 -1.2425840672 -1.1221613718
H -1.95926071 1.168632036 -0.6425618863
H -1.6260545562 0.6014428524 1.0714479461
H 0.6152781573 1.1361965944 0.5506910339
