15
0
C 1.2931529535 0.9892910553 -0.2439036425
C 0.2725872043 0.780194515 0.8297453766
O 0.443699489 -0.3410134175 1.586918863
C -0.7272156769 1.6123488094 1.103522229
C -1.2370515056 -1.4232213802 -0.9108817127
O -0.7339606899 -1.0551408741 -1.9942700248
C -0.178556865 -2.2667256028 -0.7153712543
H 1.0820678424 1.8892568136 -0.8180622467
H 2.2877705215 1.0738332959 0.2002784554
H 1.3068163068 0.1373634091 -0.9305559286
H 0.8050171204 -1.0400194252 1.024603304
H -1.4203090089 1.3970481646 1.9061496585
H -0.8341907225 2.5377285294 0.5564701635
H -2.1236535568 -1.0271807172 -0.4178243385
H -0.2417654122 -3.2569521752 -1.1650309021
