9
0
O -0.19970844 1.316846776 0.2789252576
C -0.8797644027 0.6168887893 -0.656449928
C -0.4788003592 -0.6725224039 -0.6703013207
C 0.531220845 -0.7806229825 0.3373781941
C 0.6537573549 0.4528121784 0.8734424786
H -1.6077559409 1.1702157402 -1.2255156573
H -0.8503699037 -1.4522772466 -1.3147601856
H 1.0867219211 -1.6599023044 0.6193280627
H 1.2753709255 0.8625434536 1.6513810988
