15
0
O 1.4400525634 -2.9268396579 -0.4534924903
C 0.9486050919 -1.7651744169 -0.3836402633
C -0.0925170245 -2.228231632 -1.1425218974
C -1.4802080547 1.544708828 0.7566986708
C -0.5174276879 0.8718218473 -0.2197226128
C 0.7849382059 0.5323939011 0.4271109159
C 1.4401654856 -0.6272488878 0.3577907355
H 0.0560617618 -2.1696772967 -2.2219324623
H -1.7370014378 0.8714035752 1.5758590267
H -2.4037457942 1.8301228077 0.2526045826
H -1.0405820257 2.4477399617 1.1863546324
H -0.9788421111 -0.0207596321 -0.6483350376
H -0.3096836301 1.5541140515 -1.0516962486
H 1.2311573279 1.323930432 1.0258894664
H 2.3798573299 -0.7771578812 0.8762879817
