18
0
C -1.2150389953 1.2194065557 2.1265130927
C -0.2865375503 -0.3303835272 -1.5990718711
C -1.1059332806 -1.5815348486 -1.5327511731
C 0.7429041198 -0.0755636552 -0.8218280085
C 1.6055233002 -0.5141292744 0.2741958665
C 1.8029622015 0.8403278601 -0.411820573
H -1.9926745775 1.9721901766 2.246667355
H -1.4820625009 0.3297102514 2.6953562662
H -0.2705650581 1.6156984841 2.4982665595
H -0.5715866279 0.4121087474 -2.3403781702
H -1.0904984568 -2.1137559694 -2.487474573
H -0.7332910845 -2.2532783018 -0.7589338133
H -2.1522604272 -1.352330026 -1.3128965447
H -1.114745303 0.9601794564 1.0728807873
H 1.2056137533 -0.5127572765 1.2822116834
H 2.3427949316 -1.2854039938 0.0820515684
H 2.6701348165 0.9572235491 -1.0516998168
H 1.5323317392 1.728774792 0.1479753644
