18
0
C 2.6637953872 -1.1439848382 -0.1221342786
C -0.4150203234 1.1005923393 0.6665470379
C 0.1055280847 2.1028718723 -0.0197656043
C -0.9064524449 -0.2099369773 0.1021003017
C -2.3841510723 -0.4534463943 0.4401823772
C -0.6923992271 -0.2991829594 -1.3447739028
N -0.5367602992 -0.3693657492 -2.479129091
H 2.4177364364 -1.9541178084 0.5638496223
H 3.7427538115 -1.110757126 -0.2647774582
H 2.1768854737 -1.3122561988 -1.0818108097
H -0.5305149903 1.1825518516 1.7439708646
H 2.3256962711 -0.1944433385 0.292261772
H 0.424107765 3.0096343467 0.4783592065
H 0.2366017914 2.053764154 -1.0953448374
H -0.3117982187 -1.0149673638 0.5486294497
H -2.7142307359 -1.4246814698 0.0722881714
H -2.5224202843 -0.4269293192 1.5217270247
H -3.0091534248 0.319737979 -0.0068598461
