13
0
O 1.3183302686 1.3673965723 1.2610643995
C 0.9783040737 0.7573891787 0.2610460183
C 1.6803212201 0.3956120075 -0.9074123838
O 0.8747148596 -0.3788969175 -1.6963305773
C -0.30338446 -0.5310072739 -1.2301334075
C -1.1055449492 -0.4818081364 1.2066634946
C -0.4601147196 0.2191201273 0.0203846947
H -0.5889687427 -1.4149508139 1.4320240769
H 2.7032230446 0.4752572218 -1.2243558967
H -0.9861628522 -1.1420366132 -1.8029906578
H -1.0184768472 0.1691253998 2.0761189994
H -2.1594513163 -0.6981849763 1.0282988866
H -1.0361945791 1.1237942238 -0.2356926468
