11
0
N 2.6204326508 -0.3152335547 1.4016980632
C 1.796065623 -0.1850872886 0.6159663294
C 0.748917829 0.022937723 -0.4151385433
O -0.1034939034 -1.0530902949 -0.534486064
C -1.4166335942 -0.648018367 -0.0657180183
C -1.3894583825 0.8143384132 0.1968889603
N -0.1490559463 1.1330782449 -0.0230859822
H 1.2481435748 0.2394494348 -1.3655129873
H 0.2177275474 2.0653084145 0.0972134044
H -2.1504032129 -0.9018169718 -0.8328050102
H -1.6700921855 -1.1869287534 0.8526328481
