17
0
C 1.9504827424 0.4003303062 -0.8028187201
C 0.6575022223 0.9772112079 -0.392333351
C -0.4787700287 -1.5974524613 0.9816037768
C -1.1678162463 -0.8809130189 -0.1727730801
C -0.7594938169 0.574817103 -0.3131166962
C -0.7932621346 1.6046273517 0.8360402408
O 0.5497216129 1.9511359774 0.4561518887
H 2.693230459 1.190097597 -0.9234129444
H 2.3242939797 -0.30256235 -0.0483953056
H 1.8463321201 -0.1398190206 -1.7434575999
H 0.5905602398 -1.7236950335 0.7969856095
H -0.9011009638 -2.5923375652 1.1312599596
H -2.2505769459 -0.9077507264 -0.0268923178
H -0.9762208198 -1.403413706 -1.1158169226
H -1.280982167 1.0575631472 -1.1506676619
H -0.5968246683 -1.0261326527 1.9032686984
H -1.4370505848 2.4841138443 0.7512924259
