10
0
N 1.7862926432 -0.1470002422 0.006846487
C 0.4944723396 -0.5619445323 0.0681961657
C -0.5257484647 0.5338288032 -0.0160624676
N -1.7063296136 0.4248122255 0.939534912
C -1.9046586161 0.1685369017 -0.2569910091
O 0.175881959 -1.7274672892 0.1566491923
H 2.5090539571 -0.8362266359 0.1133452896
H 2.0305967414 0.8230322726 0.071468799
H -0.1758294891 1.5417559816 -0.223085666
H -2.6897534568 -0.148588485 -0.926271703
