10
0
O -1.7193080527 -1.3896220136 -0.0106861379
C -0.7951873662 -0.4020819198 -0.0096247917
C -0.9385532323 0.9606018762 -0.0385621564
N 0.4065031427 1.334630892 -0.0166942608
C 1.2709408237 0.3245803776 0.0206994996
N 0.5256719201 -0.7845628235 0.0255111895
H -2.573319975 -0.9479177737 -0.0362543499
H 0.6977872082 2.2963579871 -0.0282584342
H 2.3458408082 0.3665332588 0.0430865979
H 0.8753937236 -1.7269428609 0.0503158438
