12
0
O -2.1616513692 -0.3370794917 -0.1655882733
C -1.0513728272 -0.0590820366 0.6697288347
C -1.7140775417 1.0060131632 -0.075454411
C 1.2913627856 0.0826554376 -0.1287439156
C 0.2448584325 -0.6445355599 0.2449234722
C 2.5387729686 -0.5085426388 -0.5061194953
N 3.5476130147 -0.9659825708 -0.8097598669
H -1.2497531582 1.3984772175 -0.9753442186
H -2.383966307 1.6839629932 0.4444733123
H 1.2484734644 1.1656129596 -0.157503997
H -1.2657746996 -0.1560970669 1.7333114672
H 0.3179282371 -1.7274774064 0.2715570915
