17
0
C -2.3281324697 -0.6515740333 -0.3834725509
C -1.2083611272 0.3410283958 -0.6611415942
C 0.1184414465 -0.0637804528 -0.0394604007
O 0.4956981968 -1.3037476858 -0.6183817513
C 1.1904880569 1.0009646415 -0.266793187
C 2.5420283742 0.8709772247 0.3542558198
O 2.6203768188 -0.2816305664 0.9875521507
H -3.2614132582 -0.3286270561 -0.8477869956
H -2.0749787575 -1.6379312043 -0.7719132188
H -2.5071263505 -0.7501883806 0.6904456797
H -1.0601235557 0.4465026682 -1.7409642719
H -1.4812270376 1.3303728726 -0.2817267506
H -0.0288352805 -0.1949482372 1.042711007
H 1.2514441698 -1.6364677715 -0.130885564
H 0.836245203 1.9939481072 0.0367158611
H 1.3925320776 1.1127648199 -1.3415397549
H 3.4956004936 -0.3483073415 1.3830105218
