16
0
C 2.1428083996 -1.1698897634 1.0904308509
C 1.0487408387 -0.2931911364 0.5766995098
O 1.5308598809 0.8645655985 0.0732141111
C -1.6954849851 1.2081572852 -1.9526031372
N -0.9914697486 1.1530815667 -0.914058603
C -1.3863814439 0.2511339681 0.1586450913
C -0.2467424081 -0.618770273 0.6176277155
H 1.7472498033 -2.0984605311 1.4977946028
H 2.6989098722 -0.646965349 1.8714920743
H 2.8463095525 -1.4005412118 0.2879472952
H 0.7924521291 1.3318979433 -0.3609890135
H -2.5989549629 0.6024853085 -2.0874593727
H -1.4105466566 1.8806216696 -2.7588378259
H -2.2406015324 -0.3708538686 -0.1407569822
H -1.7269958441 0.8872903409 0.9853424583
H -0.5142658944 -1.5744515475 1.0482952254
