10
0
N 1.7358694592 -0.259289806 -0.3426774825
C 0.4125695393 0.0205031497 -0.0979454022
N -0.5538294648 -0.9108365277 -0.042952052
N -1.7605024057 -0.3169207789 0.1515181257
C -1.4332935472 0.9474324587 0.1980359515
N -0.1072548279 1.2165897475 0.0552873794
H 2.3227225086 0.5467998862 -0.2027099219
H 2.0998982059 -1.0870695147 0.0987934284
H -0.4949044321 -1.903179999 -0.1784993609
H -2.1752570354 1.716468384 0.3492573344
