14
0
O 2.1005601729 1.0206130176 -0.1274249937
N 1.8355985106 -0.0730771247 -0.5716285458
C 0.5050498005 -0.4928848426 -0.3657400135
C -0.158059653 -1.7830483855 -0.7705176496
C -1.4262405137 -1.1618915771 -0.1059002247
C -0.5840161426 0.0479149989 0.2058726867
O 0.2967657843 2.8448813248 1.3192855244
H 0.9990748423 2.3566047264 0.8698260868
H 0.2215581481 -2.6841847318 -0.288454454
H -0.2422497952 -1.9553048152 -1.8439144917
H -1.8000325094 -1.6950121629 0.7701023213
H -2.2598112234 -0.9749658109 -0.7853486132
H -0.788593062 0.9911907736 0.6977974198
H 0.5502606402 3.7671866094 1.2837929473
