12
0
N -2.2599902305 0.4936959165 -0.1633524353
C -0.9859826348 0.1408952819 -0.1524656777
C -0.0835642218 1.2278189115 -0.0706022311
N 1.2003918847 0.9492191226 -0.0457152161
C 2.3348679239 0.6721621552 -0.1451076945
N 1.6871514467 -3.1971386849 0.3207473358
C 0.829657543 -2.4582603429 0.1390741667
H -2.5912362507 1.4517705706 -0.1218280527
H -2.9735772921 -0.2106385919 -0.2205640018
H -0.3264057095 2.2889019179 -0.0167731589
H 3.1563326273 0.4086109708 0.4985694677
H 0.0457819139 -1.7004272274 -0.021723502
