13
0
N -1.8889210639 -0.4212539372 0.0351694927
C -0.583614772 -0.2311934486 -0.5664683742
C 0.0863647568 1.1097346233 -0.3448508567
C 1.2567296871 0.9595521862 0.2571381489
C 1.4966807364 -0.4979578605 0.5001085981
O 2.4528035464 -1.0200827712 1.0221423782
N 0.3894882589 -1.1260319452 0.0016209584
H -2.6055965091 0.0731127489 -0.4778155201
H -1.8942405826 -0.0964557007 0.9940697868
H -0.3824810458 2.03472938 -0.6542124156
H 1.9653007069 1.7168770617 0.5570380576
H -0.6993516379 -0.4102866971 -1.6427987954
H 0.2553879188 -2.1190626396 0.0612405414
