14
0
N -2.7502416986 0.0871016568 -0.6847095391
C -1.6698988466 -0.3691995009 -0.0390883692
C 0.9797879951 -1.0496455308 1.0974976919
C 1.6137735005 -0.3144542398 0.2384972687
N 2.5946031312 -0.1075896303 -0.6776054612
C 0.4761905105 0.3287406001 0.9206350744
N -0.7748020699 0.5754958113 0.2169319039
H -2.8990343004 1.0560987792 -0.9496245569
H -3.4869472924 -0.5527680976 -0.9080866919
H 0.7959480076 -1.991815558 1.5768895985
H 2.4552272039 0.6640713357 -1.3053239339
H 2.9797819538 -0.9278004904 -1.1145226195
H 0.6385350434 1.0922022746 1.6849813969
H -0.9352651379 1.5476805902 -0.0413387628
