13
0
O -2.4110875713 0.0833238343 -0.2651681434
C -1.283045489 -0.4402604337 0.4074843949
C -0.0172502751 -0.3675301831 -0.4279059881
C 0.6786942064 0.9793689257 -0.5769635747
O 1.6975722488 -1.7156478742 0.855552908
C 1.3045042433 -0.7304799659 0.3098232184
C 1.8103782224 0.6473210787 0.057250041
H -2.3397541513 1.0383401092 -0.2977662655
H -1.1277316984 0.0624183133 1.3709378606
H -1.5104210529 -1.4863938579 0.6176765543
H -0.1587211483 -0.9094524506 -1.3669672153
H 0.3589595019 1.8966278578 -1.0554095881
H 2.7282939635 1.1704116461 0.2881157975
