13
0
C -1.5727755561 0.6190234612 0.2430590123
C -0.7870338452 -0.4657145775 0.8460524093
O 0.1289627498 -1.6169396219 -0.6334604521
C 0.6004226709 -0.6262742622 0.302224435
C 1.3289367818 0.4527153946 -0.4661181067
H -1.40240794 1.4119438352 0.9952509597
H -2.64532953 0.427668741 0.2568098003
H -1.258476321 1.0193839075 -0.7256343074
H -0.2002819985 -2.3640065206 -0.1208650493
H 1.2782400959 -1.0781719055 1.032469607
H 0.7431567109 0.8233232326 -1.3062073781
H 1.5641688336 1.2887363745 0.1957296373
H 2.2663413482 0.0563909412 -0.8593005673
