14
0
C -1.9002445445 1.1753237256 -0.8673150975
C -1.5297387441 -0.1241704124 -0.2585098677
C -0.2764805645 -0.6035502219 -0.0790943723
C 0.8478909142 0.1838603247 -0.4636486111
C 2.1544341675 -0.2807448401 0.0047640172
O 2.2973304453 -1.4491141674 0.8094724681
H -2.6693562334 1.0175560338 -1.6282207283
H -2.3465775986 1.8249914166 -0.1081496321
H -1.0284808375 1.6673530311 -1.2921501973
H -0.172924029 -1.5844210568 0.3880986624
H -2.360160211 -0.7371885657 0.0913481787
H 2.6506289547 0.5843572709 0.4720412924
H 2.7402396909 -0.462110818 -0.9062972357
H 1.90373559 -1.2807987203 1.6673541233
