11
0
C -1.4482752193 -0.074798716 -0.7233057854
C -0.0789232126 -0.0447137377 -0.1490080876
O -0.1551385828 0.3808905475 1.1968038679
C 1.0673862134 -0.3487912568 -0.7242295559
C 0.9353005607 0.4619608057 1.8726023802
N 1.8887932931 0.5472679705 2.511233696
H -1.8995980026 0.9182789914 -0.6852750267
H -2.084352058 -0.7523116439 -0.1509333404
H -1.4127312225 -0.409075357 -1.7576473455
H 1.069425772 -0.6699268094 -1.7553647764
H 2.0128084587 -0.2910907944 -0.2006130262
