12
0
N 2.1709169076 -0.2386524027 -0.3239547248
C 0.9253260084 -0.1526068237 -0.1431143186
C 0.1949230867 1.1647398835 0.0450932282
N -1.1837440114 0.7453487211 0.1418974461
C -1.3330572677 -0.6089862618 0.1262821611
O -2.3427804556 -1.2534887437 0.2442734474
N -0.0489398938 -1.1267055782 -0.0647270949
H 2.4837728564 -1.2000116326 -0.4261880817
H 0.554954058 1.6571783036 0.9514819803
H 0.3806325668 1.8209969804 -0.8067600863
H -1.9543028815 1.3390694137 0.3816464777
H 0.1021540262 -2.1157068597 -0.1493274345
