11
0
N 2.7377226503 0.1158455168 -0.3246023036
C 1.5047751258 0.1415557841 -0.191985151
C 0.3713730109 1.074094939 -0.2668276434
C -0.3970109883 0.0243641907 0.0415506008
C -1.8020322364 -0.3436728015 0.2692001969
O 0.6150470643 -0.9385624574 0.1376568048
H 3.1087727654 -0.8181876357 -0.167015739
H 0.2412115484 2.1192500678 -0.4773695825
H -2.4491243286 0.5242900931 0.160526206
H -2.1026037315 -1.1121312636 -0.445971652
H -1.9182508803 -0.7607434334 1.2715972632
