12
0
C 2.0865536924 -1.2153959946 0.6733019944
C 0.9893224523 -0.6041260386 0.3335817466
C -0.1026276738 -0.0006524278 -0.0054073942
C -1.1533142472 -0.1554134353 -1.0805194561
O -1.8694425514 0.974937751 -0.5564460926
C -0.9056420492 1.1798162055 0.4897182381
H 3.0454531825 -0.9142823393 0.2661914371
H 2.0743254405 -2.0430639149 1.3737619281
H -0.8094546176 0.0134162218 -2.1051511094
H -1.7427957389 -1.0757009742 -1.0354286713
H -1.3469715659 1.0683530425 1.4843683724
H -0.4112563238 2.1524279041 0.4115540068
