17
0
C -3.0770363384 -0.8521526777 0.0717658769
C 0.1726229932 -0.5604571638 -1.1767629176
O 0.0046211991 0.6060927524 -1.7169360912
C 0.5158085159 -0.450111369 0.3007949399
C 1.9874228634 -0.0676822595 0.4810074108
C 2.2719585624 1.398587186 0.3564761792
O 1.474388025 2.2273353728 -0.0069987894
H -4.1178128394 -1.1035115457 -0.1267801094
H -2.8453944493 -1.0699127753 1.1140268398
H -2.9202475328 0.2080629716 -0.124308642
H -2.4295250475 -1.438266875 -0.5800928724
H 0.1653894496 1.3579453823 -1.1010045972
H -0.1222788097 0.285787113 0.8076065616
H 0.3443024331 -1.4216067561 0.7621094094
H 2.6233367786 -0.5814049592 -0.2530961562
H 2.3674183149 -0.388558737 1.4559816898
H 3.2983708818 1.7093323401 0.6276632681
