12
0
O 1.0788784048 -0.9559489245 -0.0912637884
C 1.404219268 0.2767601298 0.3953692479
C 0.5361028138 1.2766357798 0.517508877
C -0.1807693677 -0.9534961783 -0.7374378352
C -1.1955300106 -0.1806895287 0.0844894403
O -0.792195705 1.1693159428 0.2237995337
H 2.4430760836 0.3745265266 0.6731808912
H 0.8270161352 2.256028558 0.8669383407
H -0.4821097408 -1.9941905821 -0.8563359
H -0.0822774028 -0.4920090146 -1.726760248
H -1.289522163 -0.6372514595 1.0764744984
H -2.1708383155 -0.1751602493 -0.4019530576
