13
0
C 0.57622446 0.6147356645 1.3505895797
O 1.2826000192 -0.6496550315 1.2390432606
C 0.83232985 -1.2597199152 0.1084472551
C -1.1638772355 -0.2874828017 -1.3094909222
O -1.4226236539 0.7312789183 -0.3023202647
C 0.0009081589 0.8679770509 -0.0376679209
C 0.2180584591 -0.4374786587 -0.7329226009
H 1.2997430021 1.3685530957 1.6547437211
H -0.2010922237 0.5118859985 2.1123678215
H 0.9913854765 -2.3285711737 0.0711361452
H -1.8369752618 -1.1417762648 -1.2296368494
H 0.3706220132 1.7837521603 -0.5083258107
H -1.2188030643 0.1489419575 -2.3106194145
