16
0
C -1.0576781317 1.797385107 -0.7109031411
C 0.0498652572 0.843557873 -0.3758526779
C -0.0622353139 -0.4547618606 -0.3756426042
C -0.5490750395 -2.5466187427 0.8608357984
C -0.1916564771 -1.7469308917 -0.3578300778
C 2.1619009751 0.985698664 0.8201167479
N 1.2953772033 1.4711434838 -0.0267274613
H -1.9570004631 1.2522028905 -0.9879536331
H -0.7811497993 2.4422995111 -1.5510176086
H -1.2859290105 2.441692366 0.1422549458
H -1.482932977 -3.0924961262 0.7061777465
H -0.6558486463 -1.9030253648 1.7323552889
H 0.2301910877 -3.2825010706 1.0700009552
H -0.0132849239 -2.2943974717 -1.2809513836
H 2.9996817868 1.7070211768 0.8388167006
H 1.4291154722 2.3566624561 -0.5104395956
