10
0
C -1.3066239365 0.2678659804 0.5454622119
N 0.1222494913 -1.1900823378 -0.7600203757
N -0.013064501 -0.1288400272 0.037633681
C 1.2022610669 0.3914154148 0.2338692507
N 2.0776052413 -0.3229171344 -0.4238301685
N 1.3696026308 -1.2953113221 -1.028296162
H -1.6836300214 -0.4863832096 1.2343788027
H -2.0015834491 0.3827575393 -0.2838171068
H -1.2024130521 1.2174185222 1.0658215388
H 1.4060515299 1.2588155745 0.8394533281
