14
0
O 2.4725196779 0.0622633486 -0.4099215835
C 1.7246657669 0.8264839681 0.3504952988
C 0.4229330794 0.1493636418 0.5797053954
C -0.1111769922 -1.0472465647 -0.2436120052
C -1.4998416535 -0.3760637735 -0.2282217086
C -0.8334285303 0.9598460508 0.1640285755
H 3.3113438054 0.5125539126 -0.5541341707
H 0.3857117768 -0.0455413415 1.6580171346
H 0.3277358516 -1.0675576896 -1.2420196668
H -0.0243514088 -2.040611246 0.1951378236
H -2.0762916096 -0.391128013 -1.1528555895
H -2.1242362901 -0.7619435444 0.5790332679
H -0.6252533793 1.5840628999 -0.7066155566
H -1.312009094 1.5718343512 0.9268897849
