14
0
C -1.8299206658 0.5741978702 -0.343548134
C -0.9172730365 1.5298722915 -0.3002611413
C 0.4329683189 1.4098053399 0.3387861609
O 0.7165728755 0.1206625711 0.8480411621
C 1.1152338431 -0.7837668466 -0.0790098221
N 1.1490967806 -2.0043795374 0.2021154028
C 1.3564960233 -3.1687712444 0.5846845785
H -1.6562936485 -0.3984665639 0.1010688879
H -2.7875079612 0.7374177973 -0.8211234454
H -1.1206052788 2.5002990555 -0.746151321
H 0.5051115593 2.0850965875 1.1939306624
H 1.212417031 1.7124048878 -0.3730389676
H 1.4133617137 -0.4221102218 -1.0577323802
H 0.4829114454 -3.8132529864 0.3951083569
