16
0
C 2.6758838554 -0.5169529542 -0.6622936845
O 1.9464391559 0.6155220882 -0.2512096067
C 0.6080056977 0.3259167895 0.0332217917
C 0.434139791 -0.353213707 1.3773533343
C -3.1126658035 0.4825986634 -0.5946341375
O -0.5603649296 -0.9338985685 1.7099873187
H 2.683293606 -1.3023371401 0.1044421875
H 2.261909269 -0.9382205033 -1.5866313158
H 3.6998619577 -0.1953242327 -0.8435140285
H 0.133105482 -0.2847813148 -0.7455773431
H 0.0693847545 1.2773348319 0.0797744291
H 1.303340309 -0.2466330802 2.0614796551
H -4.185337144 0.3269632621 -0.4890759632
H -2.814459148 0.248958655 -1.6163401331
H -2.8794783381 1.5249815508 -0.3787995066
H -2.5812985149 -0.16414534 0.1025330025
