14
0
C -1.5950546567 -0.9632384925 0.0115203589
C -0.432793641 -0.2314342013 -0.616065474
C -0.1933209626 1.2019349607 -0.0797913968
N 1.1778437625 1.1993867977 0.4147895015
C 1.5929571161 0.015382611 0.2530684244
O 2.788084984 -0.4528402256 0.5831313995
O 0.804161604 -0.9130858697 -0.2953246564
H -1.4951783075 -0.9783644301 1.098479073
H -1.6545252666 -1.9906243644 -0.3487881755
H -2.5282148261 -0.455562325 -0.2419417125
H -0.5178728787 -0.2452482486 -1.7052584176
H -0.8889951327 1.4446462797 0.7294311654
H -0.3224317838 1.9562244545 -0.8583535659
H 3.2724999894 0.2810260537 0.9753224759
