8
0
O 0.68985676 1.1406762494 0.522198667
C -0.6244944218 1.1084428139 0.4851617759
C -0.9138954202 -0.2320452296 -0.118555549
N 0.3623445244 -0.8920235969 -0.3903849141
C 1.2166493905 -0.0680627187 -0.0078162216
H -1.5012260244 -0.1110338511 -1.0345003385
H -1.5314605895 -0.8258068303 0.5629496476
H 2.2952587811 -0.1369258367 -0.0198460673
