14
0
O -0.78723167 -1.7522736392 0.6183780909
C -0.7989634723 -0.6935757167 -0.325382146
C -0.9756113806 0.71364983 0.2727216321
N 0.2223472258 1.1950654276 -0.4844742625
C 0.5609272 -0.2542319456 -0.7878265044
C 2.2693742933 0.2772470858 1.1891711996
O 2.9450678584 -0.5449885803 1.5664766178
H -1.6416005722 -2.1876734471 0.6045375225
H -1.5606336675 -0.9234138091 -1.0882776478
H -0.771057571 0.7341058796 1.3418307342
H -1.8752785255 1.2835072119 0.0410326353
H -0.0235791314 1.8089066618 -1.2559684156
H 0.8634871667 -0.399752407 -1.8229976867
H 0.9373292465 1.6444304482 0.1016012303
