9
0
N -0.8179033844 0.7652959981 0.1416718159
C 0.4413860982 1.1583972963 0.2291587072
C 1.1462485227 -0.1441207073 -0.0120646774
N 0.1609300022 -1.2099869768 -0.2250080259
C -0.9512865948 -0.6269843284 -0.1250189996
H -1.6044147931 1.3856431758 0.2524183401
H 1.8082590817 -0.0615300498 -0.8795642407
H 1.7928054715 -0.388976751 0.8362931412
H -1.926306404 -1.0897616569 -0.2224200609
