15
0
C 1.7166263208 0.5253409281 1.2843006969
C 0.8049120072 0.6810021095 0.0958931078
O 0.7339593227 -0.5260740574 -0.7077647553
C -0.6560055478 -0.5850417809 -0.5604671116
C -0.712631877 0.6339771065 0.3342119677
O -1.2550718506 -1.8015542153 -0.2847894964
C -1.551176962 -1.1662489924 -1.5430916462
H 1.7082693428 1.4368413545 1.8864702794
H 1.39622341 -0.3112290897 1.9077271125
H 2.7407783901 0.338946704 0.9575977979
H 1.1190417586 1.5183523584 -0.5332994539
H -1.0045914322 0.400800313 1.3573208677
H -1.290104791 1.4753410252 -0.0421034093
H -2.5699560029 -0.8047301306 -1.6509673875
H -1.1206280886 -1.6562846328 -2.4109985695
