14
0
O -1.4389829878 1.8403687684 0.0002078439
C -1.2425464353 0.8047465173 0.5757543101
C -1.0374585374 -0.5246444942 -0.0930730579
C 0.3374969928 -1.1228131609 0.1848715089
C 1.5770083749 -0.2816511566 0.1847575984
C 1.195428871 -0.6997666338 1.3405527755
H 0.1239840965 1.8183251059 -2.1455059615
H -1.2037868049 0.7860294183 1.6858928087
H -1.1980001415 -0.4078487903 -1.1667477809
H -1.8080379542 -1.2030807445 0.2927536957
H 0.4143741703 -2.1541308537 -0.1616218942
H 0.640102607 1.6688589144 -2.6636351905
H 2.2697075779 0.2772076412 -0.4190569551
H 1.3469651706 -0.7443735315 2.405058299
