12
0
C -0.7382717448 -0.409159633 1.5578396584
C 0.0009729152 -1.1658889068 0.7531993363
C -0.9367607174 1.2852670976 -1.4023006987
O -1.9724388058 1.8845067988 -1.3801778487
C 1.2817399757 -0.7742075532 0.2559395157
C 2.3506001462 -0.455216862 -0.1851041071
H -0.3948315048 0.5601766067 1.897839203
H -0.0162001681 1.6788158767 -0.9310475096
H -1.7092896006 -0.7451201552 1.8974624923
H -0.3623113577 -2.1351057523 0.4268945585
H -0.837578313 0.3007949772 -1.8984560582
H 3.3039511751 -0.1725504944 -0.5651805419
