15
0
C -1.7648208524 -1.2605523287 -0.0480800244
C -1.5576225442 0.0178626964 -0.2999929679
C -1.1679068618 1.111804052 -1.1615051138
N -1.6265998457 1.2884766857 0.2457753135
C 1.99131636 -0.0694699862 -0.1024813679
O 1.4188664899 -0.9178738688 0.7523678051
N 3.2898118433 -0.0441210701 0.157212767
H -2.1899910725 -1.5847071574 0.8937593314
H -1.5361080369 -2.005725546 -0.7979119977
H 0.4702245371 -0.9317021559 0.5649192795
H -0.1160799021 1.3233519408 -1.3154603232
H -1.8481288224 1.3822376534 -1.9631600593
H -2.5636897348 1.6568202361 0.3503753755
H 3.8834880642 0.5481101479 -0.3906805805
H 3.7078123783 -0.5944632993 0.8986605625
