17
0
C 1.2354291943 -0.0896696732 -1.1010610714
N 0.6479115988 -0.1351049776 1.2166141796
C 0.3420666556 0.7565068533 2.0474859617
C 0.0585430883 -0.1694554147 -0.1260676526
C -0.9457258083 0.9403342288 -0.4350812764
C -0.6211524232 -1.5348727838 -0.2504584483
H 1.9654054802 -0.8677273102 -0.8759017239
H 0.8906958463 -0.2176984402 -2.1294139339
H 1.735800999 0.8779646688 -1.0242562497
H -0.3710555134 1.5652520601 1.860848989
H 0.8118903639 0.7343206444 3.0298965362
H -1.8089237124 0.9074709898 0.2338469345
H -1.316938401 0.8220991817 -1.4543584014
H -0.4905791328 1.9311098852 -0.3646944661
H -1.4539594741 -1.6169590685 0.45116491
H -1.0075275785 -1.6802855415 -1.2615408508
H 0.0898478175 -2.331037302 -0.0277884364
