12
0
N 0.6607441195 -1.2988716435 -0.6665369369
C -0.1347443723 -0.0970940408 -1.0869609732
C -0.992030768 -1.0282908093 -0.2686121198
N -0.3959688162 1.750514488 0.5859527822
C 0.4133835793 0.6592474968 0.1234131555
C 0.1754626187 -0.7708695435 0.6502617067
H 0.2702859942 -2.2069070391 -0.9514526947
H -0.2334955253 0.189826435 -2.1281075909
H -1.3542123024 1.470318345 0.7476114802
H -0.0290744514 2.1531614316 1.4357101821
H 1.4589386471 0.977723257 0.0587976016
H 0.429786277 -1.2586333773 1.5857794071
