13
0
O -0.7834749163 0.8043326768 -0.2580671092
C -1.2499155298 -0.4126831641 0.363428543
C -2.1816069828 -0.7959028041 -0.7395079782
C -0.7413979174 -0.4654378346 -0.9537910366
O 2.3696099971 -0.2785510095 -0.5122461212
C 2.6022067174 0.7235353507 0.1105044681
O 1.7101498547 1.6058684165 0.5185328353
H 0.8064044567 1.3254748969 0.2257638741
H -0.9209798048 -0.763166733 1.3254658069
H -2.4406592951 -1.8484318102 -0.8020372389
H -2.9423871896 -0.0887436558 -1.0560799237
H 0.1540165159 -0.8607049103 -1.4006823298
H 3.613920094 1.0227785806 0.4189692103
