19
0
C -2.7890182153 0.3451571937 0.0080016924
C -1.3165108975 0.5014980872 -0.3440344067
C -0.4867249818 -0.7241056197 0.0308166841
C 0.9448254379 -0.5687672641 -0.2957140246
C 2.3111654085 -1.2525472627 -0.2255179243
C 1.9623911141 0.0739829719 -0.7536201222
O 2.5361117636 1.1387541088 -1.3178487518
H -3.2280792375 -0.5132628805 -0.5060856134
H -2.9222220391 0.1899112012 1.0814099694
H -3.3628807896 1.2297277496 -0.2731223614
H -0.9048343655 1.3778368456 0.1668387326
H -1.2092939341 0.6879504338 -1.4173699017
H -0.8805326747 -1.6117067652 -0.4773140707
H -0.5891900555 -0.9274110066 1.1032685193
H 1.1899216742 0.8827632214 2.8222353362
H 2.5402035179 -2.0694186395 -0.9135639045
H 2.8211952302 -1.3375242512 0.7372265829
H 1.3205347006 0.7306211849 2.1030429602
H 1.8608863437 1.8009636913 -1.4910673957
