15
0
C -1.6778859943 -0.2998266527 -0.5628944479
C -0.3962965328 0.0763452836 0.1648362416
C -0.0086274952 1.5086298303 -0.0183258393
N 1.1866986229 1.8533187986 -0.2504055905
C 0.6994087569 -0.9004297677 0.3816914369
N 1.6414840395 -1.5950648132 -0.3031725661
C 0.0102628328 -0.6305096308 1.4413573387
H -1.6046490709 -0.1084908276 -1.6371795761
H -1.8945755731 -1.3585986189 -0.4188717264
H -2.528542064 0.2730344854 -0.1821993332
H -0.8279204828 2.2378555928 0.0551369922
H 1.2692175127 2.864460702 -0.3248612031
H 2.3348626227 -2.0596280801 0.2597138329
H 2.0310230059 -1.0985123551 -1.0872146863
H -0.2258811803 -0.7652019468 2.4800551265
