11
0
O 2.1543152887 -0.7126521953 -0.1200898966
C 0.9907728197 -0.4685814326 -0.0716929155
C 0.2247089844 0.7549405832 -0.032356124
C -0.9829268086 0.9961025257 0.0124005356
N -1.8843197518 -0.0071380554 0.0390138328
C -1.2880078885 -1.2540009879 0.0096248767
N -0.0343194328 -1.4769308807 -0.0378229854
H 2.7819242439 2.4395664536 0.0951997803
H 2.91182195 1.7097823536 -0.0008435406
H -2.8839084285 0.0984829477 0.0754839021
H -1.9749249765 -2.0948703121 0.0305295347
