16
0
C 2.2051997528 -0.5029870069 -1.1595790788
N -0.2020844397 -0.2130813707 -1.3318037195
C 0.9789327094 0.1955958705 -0.5941256266
C -1.3003343891 -0.4514732161 -0.7646363875
C -1.6642078975 -0.3829670589 0.708351483
O -2.2861234551 -1.3032723646 1.1761953859
C -1.3130800831 0.8352413354 1.5266177659
H 3.1093754055 -0.1604298497 -0.6534886215
H 2.3008047796 -0.2982677017 -2.2261454394
H 2.1264095512 -1.5833792863 -1.0283364679
H 0.9094294514 0.0026640387 0.482303627
H 1.0841762753 1.2773031333 -0.729471088
H -2.1261259931 -0.8106157993 -1.3824400947
H -0.4960510413 0.5864794034 2.2073064911
H -1.0106735824 1.6809921005 0.9106421101
H -2.176890044 1.1024757725 2.1350196607
