17
0
C -2.3209646182 -0.39013174 0.1013336665
C -0.9759295231 0.1868912299 -0.2832573781
C -0.3055352033 1.184231438 0.703761353
C 0.97795543 0.4321996608 0.4511626741
C 2.3606035133 0.9206917581 0.278050342
O 2.0817716919 0.3294905219 1.3907992009
C 0.2679868565 -0.7405165655 -0.1795098133
H -2.2816964526 -0.8409112807 1.0962711725
H -3.0922006045 0.3831044113 0.1138390316
H -2.63265107 -1.1631789665 -0.6043920498
H -1.0234269072 0.6306820182 -1.2792240096
H -0.3246988947 2.2443321985 0.450545879
H -0.6657324757 1.0490385065 1.7269830185
H 3.8696125145 -1.0718636864 -2.2612553261
H 3.7381177005 -0.5285320653 -1.7671420625
H 0.109636277 -1.554125405 0.533340744
H 0.6852727653 -1.1431640337 -1.1022554428
