16
0
C -2.8125023921 0.6155628883 1.0106759297
O -1.5351297672 0.0712752203 0.7937946646
C -0.8116029718 0.7465622662 -0.1901809579
C 0.5316776769 0.107070591 -0.3781874154
N 0.9657495173 -0.9018109545 0.2381544899
C 3.4093654074 -1.1551302714 -0.9051512026
O 3.4151990264 -0.22171288 -1.6611521656
H -2.7500347442 1.6574919851 1.3484992074
H -3.4213568662 0.5777849755 0.0989337559
H -3.293510648 0.0201933279 1.784676221
H -0.6627287296 1.8047900862 0.0766314186
H -1.3428009703 0.7354644528 -1.1551194817
H 1.1773299943 0.5757611275 -1.1258830353
H 3.0499082002 -2.1532426783 -1.2097764642
H 0.2695158281 -1.2391509624 0.9034894791
H 3.7913654391 -1.0755771741 0.1272685567
