14
0
C -1.5607257391 0.1139310994 0.213564588
C -0.0857335391 0.1785429069 0.5378824675
C 0.7872061751 -0.6825128621 -0.3385730437
O 1.7708605512 0.0716275238 -0.6893103087
C 1.688733436 1.4153788461 -0.0884836588
O 0.4029546041 1.5182221828 0.3737192453
H -1.92626081 -0.9009949541 0.3666689546
H -2.1188726545 0.7934902922 0.8569381279
H -1.7342752641 0.3924462767 -0.8263304969
H 0.0980328907 -0.1690032854 1.5687449606
H -0.7235044517 -3.0169680544 -1.1141761207
H -1.250002491 -3.5248948657 -1.2688773276
H 2.4476726107 1.43881056 0.7026459325
H 1.8963606818 2.1508313338 -0.8649043198
