14
0
C 1.4184246364 0.213895865 0.0664034197
C 0.4275100299 0.964193918 0.8502616104
C -0.7546409015 1.2217357173 0.0170108575
C -1.3763789477 -0.2131492342 -0.087806887
O -0.4888872167 -1.0859557341 -0.7261381366
C 0.7313324908 -1.1900760228 -0.0493734927
H 1.5808391096 0.5668269679 -0.9603406143
H 2.374689254 0.0819681402 0.5759740839
H 0.5952219149 -1.624833654 0.9474864686
H -0.5537781638 1.5491421517 -1.0113059093
H -1.4914213269 1.8763041755 0.4861786682
H -2.2782230383 -0.159471213 -0.6956293154
H -1.6442117293 -0.5804858538 0.9095522975
H 1.3748688887 -1.8450642233 -0.6345070505
