17
0
C -2.0349369656 -0.4320533066 -0.156043729
C -2.2806733248 1.0490700537 -0.1377201705
C -1.1766354562 0.6670878657 0.4016860511
C 1.6185368182 -1.4278332769 -1.1793884132
C 1.4602304535 -0.8825740477 0.0157679112
C 1.3360256469 0.5866536809 0.2824687292
C 0.0913622668 0.9608885102 1.1009713194
H -1.7424905778 -0.9225384556 -1.0833793599
H -2.5901547274 -1.0786080382 0.5247092919
H 0.1266938 2.0233639373 1.3520089556
H -2.9660728748 1.8346029024 -0.4024966953
H 1.7155744997 -2.4991931045 -1.305868492
H 1.6523836644 -0.8212009136 -2.0786425821
H 1.4220342776 -1.5287851915 0.8910187064
H 1.3336904108 1.1354686351 -0.6625910965
H 2.2156966517 0.9207356889 0.8428185405
H 0.1047194367 0.4059750603 2.0453840333
