19
0
C 1.9156543238 -0.3283946372 -1.2753138265
O 0.6190588327 -0.8867745513 -1.2339696052
C 0.2250953048 -1.3297029652 -0.0127625312
C -0.5162895607 2.1565696186 -0.0746746982
C 0.0854929638 3.2925237228 -0.3854462056
C -1.037866845 -1.6139648416 0.2664585777
C -1.4933444719 -2.1448432345 1.5881442488
H 2.6635369289 -1.0403022167 -0.9097293611
H 1.9672531884 0.5924311756 -0.6859416592
H 2.126629295 -0.0975198536 -2.3177674308
H 1.0212169144 -1.4575288135 0.7201421492
H -0.7466516486 1.4067477778 -0.822709338
H -0.7935498539 1.9196987614 0.9463584072
H 0.3214920868 4.0378955149 0.3657031229
H 0.3629133954 3.5264543856 -1.4073530933
H -1.7817404507 -1.4568135702 -0.508969599
H -2.2261587737 -1.4792675695 2.0520742184
H -1.9717909503 -3.1222062406 1.4832192065
H -0.657430679 -2.2568864629 2.2812744173
