16
0
C -3.0275020863 -0.350536198 0.37973548
C -1.6750516289 0.2778960394 0.4267595965
N -0.6157689621 -0.4012250381 0.4729723367
C 0.6452373972 0.3072201595 0.5073304079
C 1.5350677288 -0.1330598391 -0.6236739391
C 2.986746203 -0.0283022423 -0.5305642285
O 2.3357406619 -1.2808641244 -0.4119274429
H -3.5626406756 -0.0311978902 -0.518190948
H -3.6247645052 -0.0313497819 1.2377128334
H -2.9395900778 -1.4354000071 0.3834551842
H -1.6428366698 1.3793841101 0.4195546377
H 1.1499735198 0.0708800564 1.4480895699
H 0.5102971818 1.3996622202 0.4529144807
H 1.0778730584 -0.0898911432 -1.6108338499
H 3.5779819232 0.1086596707 -1.4313156986
H 3.4356039318 0.3503390082 0.3846055799
