14
0
O 2.7457377416 -0.0938750865 0.5088144147
C 3.1067339162 0.945461914 -0.1707125512
C -0.6092118575 -0.2478351591 -0.5575957426
C -0.7262057716 -1.2195410172 0.5654434839
N 0.0381738042 0.0006917374 0.7228624961
C -1.8224457398 0.5641790432 -0.8564451629
O -2.3920726872 1.201410895 -0.0111009172
H 1.7678064419 -0.0994073682 0.7148032003
H 2.1715065983 1.5628539446 -0.3253242732
H 0.0485998304 -0.4758852376 -1.387921437
H -0.1472577724 -2.1333046702 0.5257203782
H -1.6838729472 -1.2785195701 1.0684631121
H -0.4981401298 0.6998501405 1.2298800062
H -2.1823154272 0.5425824342 -1.9005200072
