15
0
C -1.455243756 -1.281188665 0.3338766696
N -0.3464111446 -0.4012463864 0.1000871119
C 0.9904525732 -0.8652215529 -0.1510707077
C 1.7381809003 0.4095166284 -0.3971083302
C 0.9117994131 1.4437229719 -0.311095282
C -0.457097687 0.9612012669 -0.0053824455
N -1.5535276983 1.5962245468 0.1411036609
H -2.3273218743 -0.6678008388 0.5535811814
H -1.6731511282 -1.9001595313 -0.5433452339
H -1.2599077705 -1.9413447726 1.1840196821
H 1.40046935 -1.4185425112 0.7043211043
H 2.7976352163 0.4383099211 -0.6099927313
H 1.1520545048 2.489189612 -0.4415110025
H -1.4047483337 2.5915718724 0.0282612967
H 1.036977435 -1.5335445613 -1.0220249738
