13
0
C -1.7649252432 -0.2444172175 0.4834892084
C 0.2601688368 -0.1810467879 -0.9842894846
C -0.5433517587 0.5598564801 0.0411405167
O 2.7936495352 0.9836276714 0.2461843894
C 2.3470648433 -0.1197029872 0.0821970684
N 1.4828708504 -0.4853909517 -0.9375817311
H -2.3938935835 -0.5120310932 -0.3682936831
H -2.374385656 0.3350210356 1.1770997347
H -1.468465929 -1.1675509618 0.9844926651
H -0.2889735514 -0.5081740092 -1.8717378289
H 0.0832933797 0.8312887021 0.8915169837
H -0.8717957483 1.4968230976 -0.4207058137
H 2.6703310247 -0.9854119784 0.6884819751
