12
0
N 0.0905639983 0.8246158678 -0.1319033867
C 0.625412485 -0.5195473861 0.0957535705
C -0.119283122 -0.1974673638 -1.1458287921
O -2.2982461288 0.087825067 1.1871414286
C 2.0530301932 -0.7157518609 0.0148174106
N 3.1908494064 -0.8511838206 -0.0497516375
H 0.8233766601 1.4718160059 -0.3944974165
H -1.5980464202 0.6959367357 0.9048153482
H 0.1257862496 -1.0737274408 0.8810654905
H 0.4456754697 -0.1352394059 -2.0675576501
H -1.1385561438 -0.5526057688 -1.2282965802
H -2.7094676474 0.4875073706 1.9532772147
