11
0
O 3.9193272587 -0.2755206243 1.3497815116
C 2.7812960392 -0.2162268022 1.1149218992
N 1.5904326229 -0.1061938413 0.9875707395
C -1.6057196772 -0.435499777 -0.1658042349
C -1.1399625108 0.7736301689 -0.8327023062
O -0.4262176063 -0.4521791851 -0.9642823468
H 1.0128653276 -0.3493641248 0.1822097961
H -2.4390698407 -0.9919012658 -0.5807126322
H -1.4367304612 -0.5517127549 0.9002807434
H -0.6314030771 1.5370303565 -0.2520675044
H -1.6274530753 1.1113188499 -1.7407616652
