15
0
O -2.328085478 -0.3202853549 0.873122472
C -1.9074958671 -0.1867771278 1.9890186667
C 0.6625380129 -0.0739902408 -1.4026119101
C 0.8967628465 -1.0036501953 -0.2379489329
O 1.1896386526 -0.3003958635 0.9474131461
C 0.0743976384 1.2438510791 -1.2306150904
O 1.4826061351 1.0879117678 -1.4118460734
H 0.5647815645 -0.5639841485 -2.3690918146
H -2.5883204027 -0.1777602749 2.8622356987
H -0.8278893833 -0.0695872676 2.1886628341
H -0.0038256542 -1.593838281 -0.0590183236
H 1.7129334522 -1.6930230861 -0.4906929106
H 1.825300784 0.3839311043 0.711132663
H -0.232010567 1.5599185587 -0.2395983677
H -0.4432817338 1.7118603305 -2.0614800573
