17
0
C -1.3284304969 -0.1519548777 0.2974396261
C -0.6963435585 -1.4425115768 -0.2287024756
O 0.6087441734 -1.2616022531 -0.7290317366
C 1.5316169477 -0.7256497288 0.2017124506
C 1.5566476348 0.6880210027 0.5592940872
C 0.5163915711 1.5716122339 0.0251079205
C -0.8449071676 1.0636310841 -0.4901512027
H -1.0968717329 -0.012683974 1.3587350927
H -2.4149072042 -0.2534078069 0.2365127247
H -0.702156798 -2.2187664418 0.5499320679
H -1.271551415 -1.8200549608 -1.0759832722
H 1.4753986189 -1.2419795933 1.1809160886
H 2.5305122688 -0.9822762967 -0.1704094763
H 1.1218795633 2.0158590378 -0.7920185317
H 0.3894477415 2.4198129689 0.7046153086
H -0.7846370716 0.8088982044 -1.5502117302
H -1.567835075 1.877541978 -0.4019999416
