13
0
C 2.5383037641 0.2001646066 1.4246672492
C 1.5395787605 -0.1503068094 0.8615549574
C 0.3390184756 -0.5180873385 0.1703243771
C -0.3480994045 0.5994065658 -0.5452909695
C -1.5961394046 1.1705903231 -0.0389350215
O -1.5798414264 0.3053142588 -1.163294166
C -0.1306988842 -1.761938759 0.1645200247
H 3.4270175083 0.4995381851 1.9281050113
H 0.3105687914 1.2435539164 -1.1238344732
H -2.0330977039 0.7490116377 0.8615570926
H -1.8410609761 2.2065751658 -0.253074168
H 0.3788577588 -2.5547740238 0.6950718805
H -1.0361452589 -1.9959457286 -0.3804547944
