15
0
C -1.8577952365 -0.9663492449 0.9298579429
C -0.0798628321 1.000551906 -2.1711749448
O -0.0329857691 1.6367685715 -1.0309554192
C 0.7175580823 1.045544496 0.0119724043
O 0.7482514564 1.6220024135 1.0454898082
C 1.4409384092 -0.2445234483 -0.2763198612
O 2.0059009314 -0.7488116161 0.8956952628
H -0.9062935331 -1.3132240324 1.3324071586
H -1.9633932889 0.1034189286 1.1074925932
H -2.6713189376 -1.4925674524 1.4261950141
H -0.7121720318 1.6692138573 -2.7899734104
H -1.9025782333 -1.1686584623 -0.1402970777
H 0.745967155 -0.9652979937 -0.7085928845
H 2.1942597118 -0.041556369 -1.0474985002
H 2.0028631167 -0.0503675539 1.5589549138
