12
0
N 2.0925971578 0.3234462292 2.0122151365
C 1.2013980185 -0.0104592057 1.1841113606
C -1.5248289871 -1.2190814961 -1.4829074854
O -1.346427043 -1.2825445452 -0.2980897515
C 1.2833953803 0.2492563566 -0.2445597356
N 1.3732808831 0.4667976431 -1.368234989
H 2.8739511549 0.7950984127 1.5584060453
H -1.4715275649 2.0856548662 0.7001938929
H 0.3011960584 -0.525472223 1.5088548662
H -0.859307506 -0.6295061497 -2.1376368824
H -2.3659535304 -1.7492198912 -1.9656456856
H -1.6188520214 1.3701540033 0.5521272279
