14
0
C -0.7413838731 -1.5810161367 0.8725052583
C 0.2732614193 -1.1838008621 -0.1620426714
C -1.1804651624 1.6939072995 -0.8623346394
O -0.5154891185 2.6156345449 -1.2388514451
C 1.1447816092 -0.2267532339 -0.0145714098
C 2.0029856915 0.7387662852 0.1284790051
H -0.6545947223 -0.9648996164 1.7669818549
H -0.609333735 -2.6261210101 1.1612894829
H -1.7570755394 -1.4824312505 0.4797467251
H 0.2843427794 -1.7413622068 -1.0953513269
H -1.6387510195 0.9753522087 -1.5678121074
H -1.3779678129 1.5131110622 0.2108886997
H 1.7560152903 1.7493792597 -0.1804655358
H 2.9836961934 0.5582716564 0.5533401097
