16
0
C 1.7643165553 -1.1218092728 0.7282259586
C 0.6298459908 -0.2537625336 0.2980280086
C 0.6877317914 0.9380936029 -0.2940808951
C -0.6794802745 1.5252855123 -0.5419514518
C -1.6230559916 0.4158872568 -0.1074619693
N -1.5478415306 -0.8655250149 -0.7919693678
C -0.7952701292 -0.6815991607 0.4536850136
H 1.7007784816 -1.3355868461 1.7986667499
H 2.7265957765 -0.6487376648 0.5324898383
H 1.738571766 -2.0843089209 0.2102735418
H 1.6037695696 1.4337007553 -0.5938097284
H -0.8341736014 1.8123052115 -1.5873339668
H -0.8397546232 2.4260193033 0.0581165572
H -2.6018214903 0.668870386 0.2807315963
H -0.9152202953 -0.8148512875 -1.5838684074
H -1.0976139951 -1.312645327 1.2814495223
