13
0
C 0.4195955438 1.2012518323 0.3780333115
C 1.2704830034 0.034948325 0.8142591528
C 0.5980050222 -1.0338178785 0.0247935372
C -0.8766263817 -0.7502434084 0.4867555828
C -0.6491182805 0.4592650349 -0.438914703
N 0.1648689429 -0.4445625615 -1.2825284382
H 1.0341137133 1.8844965845 -0.2213825192
H 0.0781858664 1.7774646458 1.2424766206
H 0.9180723201 0.0283417134 -1.7779032745
H 1.0135708649 -2.0371528525 0.0145203354
H -1.0805096881 -0.5669760066 1.540866298
H -1.5353624768 -1.5099532234 0.0708566371
H -1.4589924501 1.0080817949 -0.9159925407
