13
0
O 0.8763908653 1.1712638573 -1.5465899432
C 0.8268493032 0.1707184595 -0.8682796071
C 0.6513745829 0.2177760536 0.6447108979
C -0.7778341889 -0.0253870488 1.0371712974
C -1.5590549046 0.8782399401 1.6052947101
N 0.8954831898 -1.0773499202 -1.4051384695
H 0.8842504484 -1.9048567412 -0.8406405506
H 0.9734003715 1.2051094833 0.9713994139
H 1.299895542 -0.5293043376 1.1136374866
H -1.1800574259 -1.011496026 0.8170449642
H -1.1995746285 1.8759902734 1.8323371887
H -2.5876495962 0.6539208786 1.8594636535
H 0.9745554412 -1.1658608721 -2.4023270421
