12
0
N 2.1664730718 0.4531800481 0.1546518382
C -0.2240740306 0.2078131706 0.0066189275
C 0.8686213815 0.9538320809 0.102267957
C -1.6825469417 0.346072265 -0.0512582366
C -1.7716156627 -0.992067638 -0.115900298
N -0.3523837729 -1.2379204786 -0.1433165361
H 2.263919729 -0.4628400093 -0.2568446583
H 2.8676595323 1.0858117348 -0.1914587925
H 0.7671447987 2.0272568305 0.2057531726
H -2.3711845373 1.1698600651 -0.1417670289
H -2.5485609346 -1.7374830601 -0.20800853
H 0.0023403664 -1.7780780089 0.6394431853
