14
0
C 1.1746276198 1.4105492908 1.0902819249
C -0.3662622388 -0.215859623 -0.5937012447
C -1.1460587836 -1.3730307748 -1.0325335433
C -0.5349618688 -1.3117726939 0.3624806076
C 0.0902452411 0.9682560094 -0.9453200098
O 0.8355522662 1.8276965062 -0.2138427205
H 0.2789279598 1.2461909689 1.6961736577
H 1.7607375837 0.4873694514 1.0677584608
H 1.768589292 2.2111819542 1.5262791091
H -2.2233867374 -1.2770759417 -1.1113308718
H -0.7028983168 -2.0624741517 -1.7425890377
H 0.3073881595 -1.9627864389 0.5689763048
H -1.2107142308 -1.1762296142 1.1996841119
H -0.111929946 1.3784900573 -1.9279017491
