12
0
O 1.9043106102 -0.5146349263 1.1454449686
C 0.8338565389 -0.0744006581 0.4469458641
C -0.2532067081 -0.9796792392 -0.0561822362
C -1.1780871899 -0.0208534613 -0.7486145716
C -0.676982316 1.2157232765 -0.6415429725
C 0.5823485105 1.1964730768 0.1051699374
H -0.7456707673 -1.5074796698 0.768530235
H 0.1426051597 -1.7392803753 -0.7398340067
H -2.0916679323 -0.3158866976 -1.2431384231
H 1.848860143 -1.4645931663 1.259202203
H -1.1258251811 2.1137371308 -1.0452217664
H 1.1990061325 2.0514987099 0.3384927682
