14
0
N 0.4942252197 3.7358179462 -0.2197836767
C 0.1522256014 2.6546362816 -0.045483562
C -0.2595404485 1.2675289206 0.162406114
C 0.8508593905 0.3165672942 -0.2845882503
C 0.7102854315 -1.1424771165 -0.0282456245
C -0.3735868979 -1.9042577113 0.2773337263
C -1.669992754 -1.3404282962 0.1977080585
H -0.4918161542 1.1218902508 1.218013112
H 1.0375809142 0.4438075042 -1.3581928449
H 1.7931459945 0.6187932011 0.1854326704
H 1.6527587835 -1.6740828726 -0.1596570386
H -0.1838268753 -2.9688951325 0.4306483893
H -1.1889681667 1.0720726064 -0.3695822004
H -2.392996039 -2.1596988761 0.0469801269
