11
0
O -0.3693201442 1.9490014201 -1.3286159567
C -1.1019801279 -0.5567329345 0.3968842195
C -0.530681155 -1.7020769661 0.3727929616
C 0.2328701937 -0.6230100773 1.0859992575
C 1.3735539194 0.0028748043 0.4437913532
N 2.2486519468 0.5280005103 -0.085232435
H 0.5380980736 1.8404154921 -1.0245351144
H -1.8798443329 0.1348038962 0.1316459733
H -0.487515046 -2.7351991941 0.0800856198
H -0.3190469281 1.8794567094 -2.2827981837
H 0.2951526007 -0.6100916605 2.1710633051
