14
0
O -0.8209161629 2.1086882104 -0.5725898038
C -0.358844217 1.0123580806 -0.4617114935
C -0.9396240737 -0.3915088675 -0.7188941166
C 0.271827144 -0.9382142285 0.0366192616
C 1.5061830918 -0.5629497838 -0.6831869095
C 0.859840647 0.4749308735 0.2092203247
H -1.75655957 1.1418409965 2.1451127135
H -1.604955787 0.5951207183 2.6287118469
H -1.0634017059 -0.7153211377 -1.7532101577
H -1.8867239096 -0.4902353168 -0.1871518658
H 0.2398525678 -1.7083583913 0.7929815646
H 1.4913913692 -0.4372326727 -1.7603597056
H 2.4365397265 -0.9532294954 -0.2906830636
H 1.3872688798 0.9226600146 1.0395514048
