14
0
C 1.5638668795 -1.1042124794 0.9303026311
N 0.2577174907 2.9481852554 -1.3471316226
C -0.2800354851 1.9507217579 -1.1662625745
O 1.0940164451 -0.289794487 -0.1216298063
C -0.2488967904 -0.4592186465 -0.3698372365
C -1.2480366512 0.2624295913 0.4719565156
C -0.9818081423 0.7140734808 -0.9517367965
H 2.6259955703 -0.8969884749 1.0429427275
H 1.048405074 -0.8757395729 1.8698217221
H 1.426402067 -2.1675448173 0.7008870162
H -0.5266089167 -1.4362526639 -0.7620757377
H -0.8543542852 0.9025620077 1.250081264
H -2.2046518813 -0.1968679479 0.6793200329
H -1.7358193742 0.5042849967 -1.698899135
