16
0
C -0.9790461503 1.383092371 0.1389289112
C -0.3489554571 0.1471111036 0.7518742571
C -0.8996870261 -1.1559187331 0.1922501641
O -0.3904740957 -2.2871861042 0.8643010465
N 1.2433350632 0.1882240851 -1.5992764082
C 1.7633745665 0.2241327701 -0.4510008612
O 1.0988755216 0.1761030674 0.7028973668
H -0.5037755483 2.2830719631 0.5310235416
H -2.0356525232 1.4164572396 0.4114640313
H -0.8926233927 1.3836658795 -0.9457087392
H -0.526611697 0.1417459927 1.8291073737
H -1.9788389955 -1.1589529378 0.360176663
H -0.7204940054 -1.2111918338 -0.8845140446
H 0.5613367815 -2.3024632825 0.7455410461
H 1.964032737 0.237779755 -2.3098295288
H 2.8333202217 0.2929066643 -0.2383178192
