12
0
O -2.4197166989 0.272623282 0.167659948
C -1.4952011478 -0.6542303825 0.1394032544
C -0.307738284 -0.0441510003 -0.5299028345
C 0.518016067 0.7576385301 0.5224567853
N 1.8315241844 0.1238259509 0.5119319107
C 1.7582436501 -0.8319603692 -0.3039672879
O 0.6069612799 -1.0575912645 -0.9673105308
H -3.1839722462 -0.073041447 0.640620893
H -0.5876084384 0.5630856298 -1.3961900876
H 0.5909957468 1.8128679696 0.2606720342
H 0.0834341846 0.6898485958 1.5231943857
H 2.5600197022 -1.5205594948 -0.5403144704
