14
0
C -1.5519222763 1.1291734302 -1.2377864168
C -0.261396954 -1.3778730679 0.8156320451
C 0.485599441 -0.2856182071 0.1006510592
C 1.6599707957 0.3638689374 0.6987025107
O 1.7983975361 -0.5906636893 -0.3326553199
C -0.3039184602 0.5106535687 -0.8518347602
N -0.1969829989 1.1210639218 -1.9322937716
H -1.1137533018 -0.9651576947 1.3571828683
H -2.3386002485 0.5444767373 -1.7051261461
H -1.8654104139 2.0679791436 -0.7905894562
H 0.3979186235 -1.8843646527 1.5192597957
H -0.6331266581 -2.1131164181 0.0999142449
H 1.9034826506 1.385522885 0.4224209541
H 1.9832072646 0.041932106 1.6851433931
