15
0
O 2.3677195052 1.5739885267 0.9380455022
C 1.425768172 0.9125424543 0.1823007441
C 0.1694652287 -1.9885854834 -0.2267006074
O 0.2631821668 0.733274374 0.9915494804
C -0.8648655123 0.2379859606 0.4433375044
C -1.1640747488 0.0185185164 -0.945683817
C -1.0383030977 -1.3072312088 -0.1178797497
H 2.0406842574 2.4511186555 1.1510276487
H 1.1373143001 1.4800600665 -0.7134376627
H 1.8220302331 -0.0651507758 -0.0944083122
H 0.0225038786 -3.0274364057 0.1137265391
H -1.699736935 0.4152358057 1.1097668005
H -0.3876811107 0.1250552192 -1.688094931
H -2.1699665248 0.2241374829 -1.2870941914
H -1.9913258122 -1.7262981882 0.2039260521
