13
0
C -1.3469010024 -1.0657338027 -0.5374601143
C -0.2267376391 -0.1828124429 -0.119497207
C 1.0509547223 -0.6404802289 0.4470334548
C 0.376523662 2.064038252 0.1600697578
O -0.4302399037 1.083556108 -0.200998039
H -1.7264386306 -1.6614965683 0.300476381
H -2.1687740893 -0.4666313744 -0.9277893955
H -1.0368926247 -1.7704665499 -1.3155087252
H 1.1909603164 -0.2162540738 1.455280109
H 1.9040535415 -0.2795168691 -0.1473332748
H 1.0960300781 -1.7261461486 0.505335745
H 1.393029645 1.8484238909 0.4449019946
H 0.0075259244 3.0425128081 -0.0900486866
