16
0
C -1.034495707 -0.1573063602 1.643006923
C -0.8882328595 0.0455281538 0.162392415
C -0.3204705242 1.2506942727 -0.3113998553
C 0.5139500411 -0.0888457733 -0.5627700489
C 1.5853478716 -0.2975800094 0.253905557
O 2.6150158654 -1.1047498547 -0.0108909474
H -0.8409089277 -1.1915539609 1.9343375949
H -0.4254454967 0.5066112132 2.2789147906
H -2.0776120765 0.0538934592 1.8921423331
H -1.8047043698 -0.5110094995 -2.1807190848
H -0.5497508862 1.6160729937 -1.3099721831
H 0.1100256748 2.012358316 0.3501690681
H 0.5346853786 -0.4688541396 -1.5814675418
H 1.6363195693 0.1116914382 1.2541138183
H -1.7968749238 -0.493917288 -2.9326692867
H 2.5399083708 -1.4502079614 -0.9066285519
