10
0
O -0.9012078293 -1.628574337 0.721142719
C -0.2344241428 -1.2863772902 -0.3388702156
C -0.1202393829 1.452403321 -0.2621511868
O 1.0924499688 0.742458567 -0.0084372667
C 1.0225616702 -0.5874024547 0.070052606
O 1.9779580136 -1.2673858927 0.3215013993
H -1.6580332309 -2.1651165071 0.4546868512
H -0.6423036023 1.0407425213 -1.1290184888
H -0.7719181138 1.430173086 0.6132861852
H 0.1695666493 2.4790359864 -0.4689756029
