12
0
C 1.2469450334 1.7886335064 -1.0566942025
C 0.5181371898 0.898980303 -0.7332294954
C 1.5910786513 -1.7355804452 0.0014627701
N 0.3416171496 -1.4071791713 0.0972461769
C -0.3897731732 -0.1819281233 -0.3591192586
C -1.3429518875 0.2307955065 0.6751137612
C -2.1322733386 0.5203767901 1.524724523
H 1.900342224 2.5810421699 -1.3377989694
H 2.1171622999 -0.8966591512 -0.4874754188
H -0.2947917386 -2.0604957195 0.5380236935
H -0.9625847219 -0.4657249428 -1.2489394687
H -2.8309846883 0.7897712771 2.281682889
