13
0
C -2.0859507285 -0.5489744375 0.1181798745
C -0.0358226212 -0.6754574294 -0.9805075186
O -0.7574577515 -0.0956717165 0.0653576102
C 2.3838911338 1.4699473886 0.5196071015
C 1.7834008635 0.6095877705 -0.2555776462
N 1.3152843631 -0.2007974398 -1.0290581245
H -2.5620378678 -0.0551571111 0.9631588038
H -2.6346787761 -0.2961417546 -0.7981863755
H -2.135619447 -1.6353841714 0.267270577
H -0.5020062141 -0.4487873681 -1.9493850216
H 0.0006822102 -1.7681661773 -0.8699686543
H 2.88507686 1.1333891137 1.4154738601
H 2.3589399758 2.5236403329 0.2823975138
