14
0
C 1.7551748573 -0.2689802326 0.549863838
C 0.5587582686 0.1836136365 -0.2438964024
C -0.3356006172 -0.7906660254 -0.9145460249
C -0.828324027 -0.0551820392 0.3135707185
O -2.6939738747 1.2844283067 0.9220835579
C -1.8380487299 1.0010672588 0.1279331418
H 1.5642850422 -1.2305385072 1.030906443
H 2.0054456501 0.4527510409 1.3293088949
H 2.6273336842 -0.3866777192 -0.0962945289
H 0.6831424518 1.132184081 -0.7573213428
H -0.1337011563 -1.8467032693 -0.7907848511
H -0.7759872951 -0.5230554329 -1.8671906397
H -0.9095434637 -0.6074368861 1.2415065613
H -1.7574057903 1.5524287878 -0.8369223657
