12
0
O -0.2382948484 0.9361814398 -1.8302821686
C -0.1265493743 0.4114160271 -0.5994319613
C -1.257796247 -0.5933018726 -0.3043469323
C -1.3330944371 -0.4829454284 1.1862229944
N -0.2110971599 -0.8225903959 1.7267835958
C 0.8976556213 0.5974727227 0.2498611902
C 0.9136795453 -0.2895198394 1.4124349788
H 0.5504899439 1.4432998496 -2.0439025401
H 1.7419853328 1.2289850802 0.0027016837
H -2.17659645 -0.2779483235 -0.7920477584
H -0.940092165 -1.5602149971 -0.7240978659
H 1.8287732384 -0.5962152623 1.9036857837
