17
0
O 2.6389449771 0.5069454042 1.2250544883
C 2.4324660781 -0.3573298282 0.122267055
C 0.9936282993 -0.8254800358 0.2096718075
C 0.0096216843 0.2087411647 -0.1530943947
C -2.8148531054 0.648967483 -0.9412567568
O -2.271549617 0.9453517248 0.3208071069
C -1.1969553209 0.1136411 0.653603911
H 3.4847416862 0.9455703499 1.1277978199
H 3.1164290021 -1.2141565373 0.1686823844
H 2.5780609069 0.1675730891 -0.8274814697
H 0.8251755554 -1.3598522108 1.1584908692
H 0.8159901199 -1.5524398247 -0.6027419668
H -2.058476753 0.7455826094 -1.7282531327
H -3.2314695658 -0.3682928641 -0.9674063373
H -3.6164933574 1.3625135555 -1.124767821
H -0.8311007655 0.4413081951 1.6444750999
H -1.5330638244 -0.934010375 0.7946543369
