12
0
C 0.5365486772 1.2956891368 0.136442151
C 1.3874392952 0.6286779735 -0.6586699762
C 1.3186379484 -0.674101437 -0.9437345917
N 0.4375891482 -1.4173811405 -0.1419125824
C -0.589833865 -0.7904663357 0.4206366402
C -0.7405017841 0.6117353586 0.3947177455
C -2.0162018286 1.0592939027 0.7377720358
H 0.8078554848 2.1760219337 0.7090241453
H 1.7358441026 -1.1881821021 -1.7998104038
H 0.5076193707 -2.4205543096 -0.0696048265
H -1.3544936648 -1.3879766963 0.8989121263
H -2.1311418846 2.1106357158 0.4230815365
