16
0
C 2.0102198074 -1.3805978303 0.9362748098
O 1.8286521821 0.0158520701 0.8865156178
C -0.489040269 1.1133630296 -1.3146146565
C -1.2676898907 1.5381357979 -0.090332728
C -1.5756773843 0.0202809852 0.0974004187
C -0.7533063451 -0.1842511088 -1.1551137667
H 2.485075146 -1.7694275714 0.0278472115
H 1.0659636955 -1.9172206465 1.0906394393
H 2.6649470786 -1.5945825286 1.7808188868
H 0.0672017168 1.6737225398 -2.0564856481
H -0.6815612993 1.9883817371 0.7129249711
H -2.1414143888 2.1623989473 -0.2856334894
H -2.6303791223 -0.248868747 0.0162532183
H -1.1667754901 -0.4162044157 1.0108577447
H 1.2524900948 0.2162078995 0.1418116391
H -0.4927605314 -1.0714671584 -1.7204996684
