19
0
C 1.8062560598 -0.1947955162 -0.3460556588
C 1.7457420881 0.2170048949 1.0858704436
O 2.731026255 -0.3809194862 1.809257461
C 0.8531881879 1.0569846476 1.6026593093
C -1.7609843101 0.5558825326 -2.0527630152
C -2.0236599199 0.2068222167 -0.8022384872
C -1.7828522061 -1.146419558 -0.2152849269
H 0.9970011594 0.2609455815 -0.9132751875
H 1.7312576096 -1.2815088219 -0.4250972834
H 2.763814429 0.1011769673 -0.7791885831
H 0.0988381308 1.5024718609 0.970798521
H 2.6751053032 -0.0899837849 2.7228731096
H 0.8582477247 1.3233093452 2.653698671
H -1.3459307683 -0.152345592 -2.763204862
H -1.9558193315 1.5581621294 -2.4145486215
H -2.442785833 0.9516209761 -0.1290494263
H -1.3764564088 -1.8363953686 -0.9562838745
H -2.7096840618 -1.5708415022 0.1788139423
H -1.0804331079 -1.0801285221 0.6203294685
