15
0
C -1.1006554294 0.7534133897 0.4856472828
N 0.0161557534 -0.1671436433 0.1423417665
C -0.0587726417 -0.8072834591 -1.2036982172
C 1.3508820806 0.4896139134 0.2919948889
O 1.5186286398 1.0370385785 1.5565289887
C -1.0105354745 -1.8391803144 -1.1961308168
N -1.7564359829 -2.7257109097 -1.1265495579
H -2.0266664267 0.1870492316 0.4201778368
H -0.9621941023 1.1648838855 1.4844191565
H -1.1094982046 1.5534224297 -0.2525662793
H -0.0095078868 -0.9399836491 0.80547971
H -0.1789851226 -0.0492489469 -1.9704830261
H 1.3789418856 1.2897402766 -0.4478015226
H 2.0837722062 -0.2730857865 0.032269083
H 1.9954427059 0.4255300039 2.1199367065
