11
0
N 1.3461688092 -0.4142313709 1.2502193868
C -0.2344950078 0.0789010981 -1.1253641684
C -0.7140076016 -0.4017039232 0.2161184578
O 0.0304505645 0.10580781 1.3079429342
C -0.8302401222 1.0572067913 -1.7595935223
O -1.3748566454 1.9099247185 -2.3196583532
H 1.5084017012 -0.7962185332 2.1758710946
H 1.9478783067 0.3984525185 1.1614838469
H 0.6502801675 -0.3437252236 -1.5807261463
H -1.737022362 -0.0741822835 0.4053211898
H -0.6865878101 -1.4949096021 0.2368182801
