13
0
C -1.5414353891 1.5194440831 -0.2111743943
C 0.2928186436 -1.6407683865 0.0349230546
O 0.0672600652 -1.7460351603 -1.1411659275
C 1.2878008987 -0.6496312149 0.5667216032
O 1.863403886 0.1091915389 -0.447612849
H -2.0603119228 2.3740878395 -0.642173759
H -1.7175714996 1.4995781893 0.8641408925
H -1.919982389 0.6029941126 -0.6619554671
H -0.2246734251 -2.2721204299 0.7811829896
H 1.4863610821 -0.212414226 -1.2776557106
H 0.7657302789 -0.0114265213 1.2935370945
H 2.0487874553 -1.2095964389 1.1296447436
H -0.4735506842 1.6091716142 -0.4082662705
