16
0
C -1.8319435827 -0.2019308958 -0.1307144453
C -0.4072982604 -0.5397553254 -0.5117204082
O 0.0930174941 0.4901512052 -1.3388452237
C 0.5001967856 -0.7000087783 0.7035162789
N 1.8784771476 -0.8713775005 0.2519863304
C 0.1573514374 3.0992405179 0.4434603659
O 0.3197514429 3.8087719073 -0.4120846803
H -2.2714341779 -0.9956887399 0.476980963
H -2.4414000488 -0.0766262986 -1.0259144886
H -1.8598287818 0.7312170104 0.4358101759
H -0.4024848483 -1.4903193592 -1.0712747693
H 1.0542738083 0.3916943524 -1.3137539269
H 0.4492519152 0.2201148968 1.2912004381
H 0.1352135721 -1.5219104933 1.3331891415
H 2.0536326068 -1.8203303668 -0.0504091601
H 2.54195849 -0.6541551323 0.9804544089
