12
0
O 2.6677655928 -0.0847440663 0.5330241664
C 1.5744323612 0.2094742614 0.1756411686
C 0.5359669143 -0.6141030297 -0.5657580655
C -0.596961333 0.3514397851 -0.7043156704
C -0.2275955021 1.4855975744 -0.1322803783
O 1.042198083 1.4575671722 0.4044861247
H 0.9551279002 -0.9575552431 -1.5138683862
H 0.2965070648 -1.5031567233 0.0221733216
H -1.5443393102 0.1639677435 -1.1830284408
H -1.9360362781 -1.1397664488 1.5916443839
H -0.7451139222 2.4250419805 -0.016612385
H -2.0722655707 -1.8532770059 1.7592071608
