16
0
C 1.3959711126 0.4318691657 -0.0253656907
C 0.1465374474 -0.3692619596 -0.2862366715
O -0.0580411828 -0.6848932351 3.0672548875
C -0.7856827662 0.0061077104 -1.4020916992
C -1.217189573 0.2232492132 0.0054963242
O -0.5448381493 1.1557658746 -2.1525608508
H 1.2369159535 1.4848196638 -0.2591921035
H 2.2273172625 0.0724024766 -0.6366168617
H 1.6964096318 0.3622609993 1.0220210315
H 0.2420738832 -1.4376555334 -0.1171659076
H 0.4460311552 -1.4716450687 2.8553014468
H -1.2613289876 -0.8023040237 -1.9510565691
H -0.3619100723 -0.3498338266 2.219177767
H -1.2383194961 1.2564058998 0.3314382007
H -2.0035040657 -0.4028396831 0.4075774862
H 0.148468847 0.966804327 -2.7882597899
