18
0
C 2.2048924168 -0.3466687688 -0.1889708198
C 1.0089563804 -1.1686042117 0.2700922258
C -0.3333035711 -0.5074237346 -0.0424187394
C -1.5059970051 -1.3777128026 0.4107400529
C -1.2043476188 2.9384500712 -0.378655005
C -0.4396252693 0.8202342281 0.6619123739
N -0.8192424555 1.8318420804 0.1130362643
H 2.1660009624 -0.1618241107 -1.26578701
H 3.1439556207 -0.8583612843 0.0274640947
H 2.2286832674 0.6217032944 0.3162770908
H 1.0682126667 -1.3415985071 1.3487895289
H 1.0241108826 -2.1506942712 -0.2128779994
H -1.4722277018 -1.5362071701 1.4902540505
H -2.4639844343 -0.916904495 0.1650807153
H -1.4605667892 -2.3499012258 -0.0839423119
H -2.2544839636 3.1971754833 -0.3494333082
H -0.4736262864 3.6195693919 -0.7940043208
H -0.406869102 -0.3562909671 -1.1293188824
