15
0
O -2.4889999859 -0.0244522938 1.7604353203
C -2.1900740028 0.7712320402 0.9172182128
C 0.0463683847 -0.7233682478 -0.7351214447
C 0.4454016623 0.2930410869 -1.7563535362
C 1.5205792258 -0.3906131369 -0.9794395204
C 0.9313276818 -0.3151295179 0.3402009107
C 1.1107823432 -0.2111871013 1.6421795245
H 0.2903252614 -0.3825669058 2.327331281
H -1.3635090416 1.4913885962 1.05913314
H -2.7275016591 0.8255090185 -0.0490760401
H -0.4747485296 -1.6559606609 -0.8811604146
H 0.341590045 -0.005277033 -2.7950907342
H 0.2437628359 1.3444773717 -1.5688710017
H 2.3080416032 -1.0288325227 -1.3471383662
H 2.0826691757 0.0360383068 2.0480836688
