13
0
N -1.8623715372 0.5709771864 0.0267862665
C -0.4535236567 0.3792368442 0.037373867
C 0.0689722882 -0.8342588848 -0.1118001408
O -0.4772284826 -2.0525580274 -0.2858328168
N 1.4996610754 -0.7262724389 -0.0620720633
C 1.8874763758 0.8106445425 0.1534306242
C 0.6469498343 1.3438400843 0.1942931802
H -2.1395604165 1.1839579715 -0.7293026444
H -2.1779069111 0.9984534624 0.8881280107
H -1.4343909996 -1.9203418246 -0.2832167296
H 1.916793604 -1.2439415992 0.7081371339
H 1.9571870607 -1.0275424316 -0.9194273748
H 0.4765357653 2.4040931153 0.3331446872
