14
0
C -1.025991919 -1.0054496624 0.455127795
C -0.5185542465 0.3725413237 0.0187135466
C 0.7990986617 0.2925859337 -0.772342508
C 2.0765409676 -0.0118141584 -0.0577391265
O 1.8762477509 0.0551394075 1.2354475052
C -1.5344293589 1.052018846 -0.7900164103
N -2.3242129061 1.5733766138 -1.4392688171
H -1.9590911296 -0.9209373783 1.0116053758
H -0.2868070668 -1.4894093227 1.0921808824
H -1.2054749 -1.6405862475 -0.4137094584
H -0.3597959922 0.9916400485 0.9053450406
H 0.7169539461 -0.4132351773 -1.6043924129
H 1.0226700634 1.2501574912 -1.2629771106
H 2.7145971295 -0.1085327175 1.680603698
