12
0
N 2.2188344408 0.1622438476 0.0335736389
C 0.8283420099 0.1658086792 0.0230370912
C -0.0433125978 1.2110917748 0.0660880662
N -1.3097703308 0.6140941281 0.1021955435
C -1.1050655394 -0.7071895009 0.077269824
O -2.1420810005 -1.5540907476 0.0970088962
N 0.154015507 -1.0351833165 0.0280667056
H 2.5875732503 -0.7061931391 -0.3203876718
H 2.6360714643 0.9547420764 -0.4253534082
H 0.0913176995 2.2772556371 0.0943144313
H -2.2015915691 1.0702997822 0.1351856964
H -1.7743953342 -2.4429652211 0.0804921867
