11
0
N 1.0186563189 0.2119114542 0.5359023628
C 1.6344303833 -0.8447965893 0.0707223701
C 0.4360098216 -1.6706713297 -0.319506044
N -0.7031547397 -1.1340156358 -0.0956819945
C -0.4481571398 0.1539843285 0.4629893085
C -0.9288451418 1.2569886799 -0.4821212854
O -1.4055557268 2.2820188522 -0.0977835375
H 1.5017282618 1.0180453543 0.9018143512
H 0.5075000296 -2.6577644678 -0.7621941746
H -0.9152033461 0.2780035144 1.4416880217
H -0.7558097213 1.0400438391 -1.553898378
