15
0
N -3.5993928697 0.0220669296 0.2650266777
C -0.1327143405 -0.1078291159 0.6437397368
C 0.8074528061 -0.5097428979 -0.4616586565
C 2.0884756938 0.3053412956 -0.4529021739
O 2.774255993 0.0314095919 0.7558230668
C -1.3490625527 0.3211012864 0.4425666772
N -2.4540131875 0.8078149916 0.2419195271
H -3.4261044211 -0.9271432457 -0.0454281867
H -4.2975328832 0.4653363761 -0.3112784975
H 0.2333743021 -0.1599691494 1.6633714287
H 0.3191791215 -0.3927933923 -1.4314267516
H 1.0758023531 -1.5654734345 -0.3555604181
H 1.8456528462 1.3721526182 -0.5326014689
H 2.704272024 0.0278315336 -1.3182304743
H 3.5150411151 0.6321816126 0.8391175132
