15
0
C -1.6797612608 0.3097375267 0.0888965444
C -0.6093038969 -0.7491747167 -0.1429655279
C 0.6789929564 -0.0754473544 0.3766228667
C 1.9503456463 -0.5046043261 -0.3392603793
C 0.4311872316 1.4210054106 0.327269873
N -0.858291481 1.5322570759 0.1670065839
H -2.2193091956 0.1674938239 1.0299235869
H -1.3039330471 2.4365968155 0.150371694
H -2.4121671929 0.3876920976 -0.7159737002
H -0.8364625707 -1.6915941822 0.3547635088
H -0.5079336176 -0.9530020709 -1.2121739896
H 0.7991031552 -0.2840437069 1.4497121902
H 2.1062711334 -1.5827584597 -0.2554447249
H 1.8972969348 -0.2531900246 -1.4013417922
H 2.8181552046 0.0045720913 0.0801202662
