20
0
C -1.3381279375 1.6390696362 0.7047721082
C -0.4283334319 0.472817632 0.5865370462
N -0.5179870848 -0.5710167493 -0.2091821931
C -1.1812478302 -1.4528662538 -0.8928811143
C 0.7870032626 0.0964813147 -0.1755107155
C 1.9200633025 -0.6246571226 0.5157470426
C 1.1697083742 0.8033367332 -1.4606535554
H -2.3010131655 1.3266132257 1.1129610224
H -0.9228681975 2.3870191068 1.3794417875
H -1.5279128552 2.1192625249 -0.2664910851
H -1.3899037983 -1.3107742054 2.2342361375
H -0.6308305955 -2.1759780511 -1.4744542666
H -1.8609157632 -1.8781025938 2.3656938289
H -2.2573553203 -1.4883342464 -0.8053483865
H 2.6661819337 0.101373402 0.846573207
H 1.5511487962 -1.1595294411 1.3899489311
H 2.4176342425 -1.32942444 -0.1561954519
H 0.2939213238 1.2194038168 -1.9597056942
H 1.6791803741 0.1339198046 -2.1572813221
H 1.85517937 1.6214339066 -1.2292163263
