14
0
C -0.7829106454 0.8215098901 -0.5941644365
C -1.2020731256 -0.3272098578 0.2504394224
C 0.2154942514 0.1606855836 0.3088540477
C 1.4183504377 -0.6063165542 -0.1201300264
O 2.1266165794 -0.1242816575 0.9012112942
C 1.0527669646 0.6898596093 1.4521092254
H -0.6507803667 0.6624602225 -1.6561949533
H -1.1123883817 1.8130186591 -0.3110711464
H -1.8223563876 -0.1300750688 1.1153618038
H -1.3593248412 -1.2869784734 -0.2238874224
H 0.2873921084 -1.8818429747 -2.4585432453
H -0.2277821556 -2.0465937591 -2.9747613503
H 0.7974014754 0.3668730281 2.461742902
H 1.3202250867 1.7468603528 1.4371288852
