16
0
C -2.3179940969 -0.9881090146 0.7283252948
C -1.0724310188 -0.3651765979 0.2007738615
N -0.2640009303 0.3001559015 1.000449833
C 0.9030483816 0.9372725757 0.8262982798
C 1.6713388328 0.936900139 -0.411639362
C 1.780231165 -0.1541698366 -1.3882702663
O 1.0137478844 1.0014896664 -1.6949912529
H -2.320608402 -2.0766346236 0.6110347141
H -3.2089660248 -0.6101618448 0.2176419463
H -2.4432764812 -0.7816362046 1.7955346604
H -0.8361718083 -0.3720275584 -0.8512788331
H -0.5968261466 0.3543386812 1.9557351428
H 1.2671489823 1.4826879472 1.6804991689
H 2.5361574548 1.5938107018 -0.3515318953
H 2.7009578792 -0.2657630846 -1.9550593634
H 1.214931329 -1.0723638479 -1.2555649288
