10
0
O 2.3019844163 0.7261092087 -0.1824391979
C 1.8115194913 -0.2176341669 0.3366761056
N 0.3631145273 -0.5124788691 0.2962406328
C -0.4907852872 0.4655645305 -0.4189381401
N -1.5405373369 1.1179125052 0.4091716349
C -1.8978025088 0.2131277968 -0.3733806407
N -0.0631720263 -1.5118915788 0.8365909011
H 2.3114137305 -1.0155126873 0.9101558509
H 0.0335989312 1.0478336034 -1.1648759182
H -2.7820949373 -0.3180923425 -0.6892042282
