14
0
C -1.3653326204 -0.055524598 1.0449955149
C -0.405201485 -0.5034064095 -0.0228719794
C -0.5699302713 -1.7795187371 -0.681484087
O 0.1663191048 -2.2424764953 -1.5310951718
C 1.6712401943 0.6947862993 -1.1633321579
C 0.6315868793 0.2503327994 -0.4576715385
N 1.2132770814 1.5360963082 0.0171479135
H -2.4022694823 -0.1277655379 0.7064885814
H -1.1934750189 0.9863940359 1.3229217463
H -1.2809007742 -0.6513766579 1.9580840011
H -1.4649258021 -2.352447544 -0.3530894758
H 2.6955759457 0.4048190602 -1.3148936471
H 1.6653689679 1.4999316631 0.924278924
H 0.7524342809 2.4127738134 -0.1834196238
