19
0
C 2.2074499982 -0.8444018209 -1.6567837831
C 0.2182703718 0.3022844947 1.0808606427
O 1.4189984679 0.0508784306 1.6595127485
C -0.2754679623 1.5080103088 0.8259023453
C -1.6695777193 1.409206214 0.2688994658
C -1.7935218528 -0.0827441863 -0.1083509961
C -0.7350462153 -0.8086521282 0.7360648903
H 2.9203629694 -0.4828898995 -0.9174608285
H 2.6433239308 -0.7661202278 -2.6515125846
H 1.9643158254 -1.8878091933 -1.455532083
H 1.6136121084 -0.885255244 1.5907440858
H 0.2323926571 2.4373441402 1.0446606877
H 1.3042233152 -0.237734934 -1.6042057372
H -2.4157718937 1.6938827785 1.0198273633
H -1.8331614098 2.0598781372 -0.5934068365
H -1.5527130732 -0.2074922532 -1.1660972451
H -2.7981995891 -0.4776712909 0.0440427314
H -0.2483014827 -1.6243592898 0.1918946398
H -1.1542624458 -1.2385710359 1.6531484935
