13
0
C -0.8959321568 -1.1697962787 -0.432065653
C -0.0319728916 0.0311249775 -0.1359510224
C 1.3664226495 -0.030374956 -0.6990126733
O -0.3550001216 1.2180074059 2.2001202553
C -0.3690783072 0.9443236614 0.9084551827
N -0.7376367444 1.4208352557 -0.1818643166
H -0.4570221255 -2.0773798791 -0.0102004198
H -1.8968334174 -1.0482915195 -0.0187525104
H -0.9833746437 -1.3125279236 -1.5121327471
H 1.9232690718 0.879228307 -0.4758240688
H 1.328191185 -0.154408755 -1.784264094
H 1.9135144855 -0.8810307846 -0.2851540284
H -0.7738239839 2.078031489 2.3343440958
