17
0
C 1.7293666247 -0.5066464636 0.9528697271
O 1.1951155465 0.3763063316 -0.0225201737
C 1.2690979571 -0.0572714508 -1.3092779919
C 0.5413544499 0.4729676382 -2.2766195273
C -2.1701514513 -0.5057237432 0.4210070618
C -2.0748475741 0.5289106574 1.2482567756
O -1.0676145293 1.4208175222 1.3232815634
H 1.1443429987 -1.4286627887 1.0031278413
H 1.6703693404 0.0099233406 1.9080334272
H 2.7739121381 -0.7396260648 0.7292203802
H -0.1728558632 1.2631318091 -2.0828546841
H 1.9865406953 -0.8557031553 -1.4826098214
H 0.6622859153 0.1196292564 -3.2898755818
H -3.0395886828 -1.1453084299 0.4667162801
H -1.4114825084 -0.7248380278 -0.3216794684
H -2.8495867926 0.7535848956 1.9738156882
H -0.3551302645 1.1663416729 0.7151445038
