16
0
C -0.6593410984 -0.336119093 -0.7504133793
C -0.8937304385 1.0668044245 -0.2161847011
C -0.3055954526 0.9301516991 1.1817434945
O 0.7959948816 0.0454166893 1.0474945826
C 0.7089331262 -0.7211951669 -0.1406414158
O 0.8061279105 -2.0855382479 0.1304318607
N 1.8684831022 -0.4289342106 -0.9357644442
H -1.4298585381 -1.0142456407 -0.371130424
H -0.6475507615 -0.4183144138 -1.8360450259
H 0.0966053883 -2.3240208506 0.730283197
H -0.3337080455 1.8056089173 -0.7953653631
H -1.9410628234 1.3680379175 -0.2099729251
H 0.0606791285 1.8687285336 1.5996712755
H -1.0431601522 0.5098012231 1.8779390754
H 1.9051020199 -1.0255391301 -1.7503047807
H 1.8805047529 0.540009349 -1.2193920268
