17
0
C 0.8233857415 -0.5844852844 1.2916993691
C 1.7428224453 -0.0623627142 0.2245521123
C 0.9114194037 -1.342939641 0.0027757323
C 0.187936463 -0.6888429681 -1.2096435714
C -1.1527499124 0.1148489301 -1.2603410232
C -0.3033754619 1.3276170862 -0.8657438443
C 0.8123576531 0.5853735334 -0.7852605684
H 1.3073067833 -1.0757234324 2.1281134939
H -0.0635874955 -0.0218141057 1.557317949
H 2.8085585548 0.0519097666 0.3620787546
H 1.2701296373 -2.3641624116 -0.0012691766
H 0.5162122361 -1.140417104 -2.1455708693
H -1.8453745125 -0.1573192707 -0.4587178692
H -1.6929726858 0.1111532352 -2.2102430646
H -0.5782716258 2.3180423012 -0.5224850589
H -2.5106639769 1.3990132783 1.6414291132
H -2.2306782471 1.6878728009 2.2683015216
