15
0
C -1.6092892099 0.218150028 0.6682365193
C -0.9532421984 -0.8590460267 -0.184445614
N 0.6375749854 0.680888541 -1.3306793194
C 0.497605935 -0.5448438329 -0.5625591631
C 1.4407403186 -0.3217777455 0.5788914854
N 2.0337214284 0.8067686975 0.4957778435
C 1.4960572907 1.3720425245 -0.6954040542
H -2.6459284624 -0.0420477841 0.8861448693
H -1.0923688189 0.3470126151 1.6217351298
H -1.6062589319 1.1775769191 0.1499474319
H -1.5119426358 -0.9924716619 -1.1129585023
H -0.9705442329 -1.8204849809 0.3366456233
H 0.8798829159 -1.3708475086 -1.1775193955
H 1.6335624806 -1.0197637985 1.3876900074
H 1.8342741358 2.3496760136 -1.0175708617
