13
0
O 2.6578306954 0.9171171177 -0.014457643
C 1.4950335649 0.5609669598 -0.3330889977
C 2.0291001421 -0.0053894769 -1.4885229128
C -1.4529757275 -0.8191760324 0.6837564651
C -0.924165311 0.2943908432 -0.2054194922
N 0.3451676916 0.828985513 0.257102414
H -0.7534531499 -1.6559005795 0.7141630162
H 2.3615005988 -1.0297156072 -1.2871366269
H -2.4096427517 -1.1847702861 0.307448673
H -1.6063688579 -0.4674241209 1.7060744166
H -0.764742781 -0.0640281979 -1.2238626537
H -1.6432822708 1.113902545 -0.2691241875
H 0.3792271569 1.4027783226 1.0843785289
