18
0
C 1.7120360246 0.373000889 -1.3179632908
C 1.0318643224 -0.4975255857 -0.3004327236
C 1.2922566336 -0.3715809224 1.1546878631
N 0.0560821027 0.1155848763 0.5770552366
C -1.2009781701 -0.6135896455 0.8479627991
C -2.3142674342 -0.1669610786 -0.0673439053
O -1.9730315721 1.4443630371 -0.1200049166
H 1.0675387014 0.5245137686 -2.1862543209
H 2.6426437582 -0.083241016 -1.6610708583
H 1.9466910902 1.3499752636 -0.8919650474
H 0.7671676781 -1.4951725802 -0.6448542196
H 1.9857894081 0.3814645366 1.5133504091
H 1.2285094363 -1.2675310441 1.7644280638
H -1.0850855005 -1.699692804 0.7278960746
H -1.433169243 -0.4255730234 1.9031052039
H -2.0105605159 -0.3895623854 -1.0996215571
H -2.534937046 1.8340738097 0.5539560086
H -1.0165236737 1.4394239045 0.1833031811
