11
0
N 2.0938763427 -0.2372150972 0.0636061599
C 1.0551949442 0.0309701358 0.836902895
C -1.0700567032 1.620789712 -0.8089820856
N -1.6772904565 0.5263679081 -0.4191044461
C -1.1829369179 -0.6044947026 0.2981629951
N -0.0040874849 -0.7191364236 0.713030197
H 2.0841956675 -0.9358280573 -0.6681844372
H 2.9456909943 0.2740718598 0.1995857218
H -0.0002550223 1.5064666182 -0.5568096635
H -2.6712085632 0.4639145787 -0.6012239283
H -1.9303838007 -1.3599415318 0.518430592
