14
0
C -1.8789880608 0.3404747363 -0.7622124669
C -0.5966966529 0.1264273262 -0.0116950751
N -0.2490073194 0.9237906031 1.1130393874
O -0.6776853901 -0.4920261952 1.2176697907
C 2.2626339371 -0.6070282865 0.6121468081
C 1.6634545502 -0.5778599679 -0.5651071249
O 0.3753978521 -0.2541370457 -0.9010268693
H -2.6782158728 0.59784749 -0.068818903
H -1.7543083548 1.1365373089 -1.4961403705
H -2.1469398289 -0.5751712215 -1.2886180586
H -1.0729699026 1.4599777795 1.3871135981
H 1.7816858583 -0.3496500075 1.5410171378
H 3.3021447205 -0.9045456731 0.629527471
H 2.186319464 -0.8408478463 -1.476340325
