13
0
O 0.261383991 -1.0278281048 -0.7820474493
C -0.2989155556 -0.237601167 0.2260597294
C -1.8062397804 -0.4168433831 0.3958141872
O -2.0163538265 1.002580004 0.3335711202
C -0.6665955743 1.2191989154 -0.100598127
C 3.4687152171 -0.5222185067 -0.4124600502
O 4.5666555015 -0.3296429696 -0.2930615129
H 1.2186896105 -0.9569923092 -0.7386748785
H -2.169562942 -0.8467965698 1.3313029224
H -2.2556276833 -0.9363839252 -0.4565580209
H -0.6081254086 1.4322934896 -1.1735798863
H -0.1751373018 2.0132871811 0.4672459408
H 0.2531497525 -0.3352406546 1.1659160251
