14
0
C -2.1181993928 0.3412544205 -0.8434331253
C -0.6808984051 0.5388371166 -0.6863845185
C 0.5013120544 0.7064302451 -0.569259276
C 1.938875185 0.9028473633 -0.4257255175
O 1.4072906978 -1.6521254108 1.8262380305
C 0.239222299 -1.5459959584 1.581814929
H -2.4243930793 0.5357505935 -1.8724475487
H -2.6799351527 1.0119140686 -0.1914302112
H -2.402215309 -0.6843578658 -0.5988630087
H 2.1583165464 1.9120687725 -0.074365059
H 2.3514754354 0.1920941838 0.2929679054
H 2.4452834142 0.7575815846 -1.3810219252
H -0.41511517 -0.8524077208 2.1412173702
H -0.2491951233 -2.1433683929 0.789955955
