13
0
C -1.6037081564 0.4547805705 -0.2317631771
N -0.3134366763 -0.2368928789 -0.2443978209
C -0.2757114146 -1.5305436069 -0.1096478547
C 1.8792427721 0.7339751519 0.3466236262
C 0.7639211192 0.5745700553 -0.5689304081
O 0.8853486612 1.7568386442 0.2041818565
H -1.5590806999 1.2254711957 0.5359887027
H -1.7637650407 0.9246556595 -1.1992929011
H -2.3948259592 -0.2568598334 -0.0120082549
H -1.1925500192 -2.097886186 -0.1444349822
H 0.68674442 -2.0193964587 -0.0854507737
H 1.872104256 0.2363539732 1.3162631744
H 2.8637297379 0.9798557137 -0.0398611872
