16
0
C -1.1317666425 1.1943089749 0.9039236473
C -1.5114672576 -0.2485886975 0.8075613074
C -0.8050873658 -1.2565627373 1.2987232648
C 1.8517042797 -0.2877505738 -0.5900826486
C 1.1161542374 0.0822965432 -1.8404443671
O 2.2794033312 0.4995011122 0.2098526441
H -0.1573814685 1.3210854329 1.3759166374
H -1.8749091053 1.75122739 1.4806318696
H -1.0937642195 1.6560617027 -0.0865659629
H 0.1242228093 -0.3762511053 -1.8132257338
H -2.447520442 -0.4671978669 0.2974187359
H -1.1418112634 -2.282112165 1.2041773574
H 0.1309572926 -1.0886971314 1.8217997941
H 1.9884374302 -1.3771786437 -0.4272074002
H 1.6373973437 -0.3309175574 -2.7078190598
H 1.0303590404 1.1633183222 -1.9337440856
