18
0
C -1.4869472523 0.642727555 0.1942254661
C -0.6887995619 -0.4530368156 0.8806280609
C -0.9000755676 -1.8845257982 0.1741724448
C 0.2735911627 -1.5343588429 -0.8629292141
C 0.579198169 -1.0208249078 0.4537577565
C 2.0653827542 2.0143298211 -0.0733317545
H -1.1382177942 1.611252847 0.5561330532
H -1.3732550989 0.6348264556 -0.8902601897
H -2.5508329863 0.5636221136 0.4290345141
H -0.8073806848 -0.4158920348 1.9628883741
H -0.8534832676 -2.7967248088 0.751804717
H -1.8262974708 -1.7944352035 -0.3832392044
H -0.1811540251 -0.9457952401 -1.6629035997
H 0.9100804222 -2.3287792146 -1.2413409309
H 2.1905027378 1.0465420496 0.4119871526
H 1.5701193326 1.879349348 -1.0344365101
H 1.4589908603 2.6619469475 0.5589211998
H 3.0404882707 2.4733917287 -0.229720336
