19
0
C 2.385092441 0.3553986575 0.2923429819
C 2.0969315589 1.7779232928 0.6600183465
O 0.9997014603 2.227495058 0.8517236573
C -1.1629312513 -1.602701006 0.246622112
C -1.0754619572 -0.9417476648 1.3919872022
C -1.3629250512 -1.0028785332 -1.1149088375
C -1.5937445034 0.5001744968 -1.1436306073
H 1.4731803419 -0.2397565558 0.2874788231
H 3.1043936467 -0.064609311 1.000054339
H 2.8601907006 0.3313733681 -0.6924311131
H -0.491737647 -1.2577562708 -1.7312615448
H 2.987065592 2.4362490852 0.7487929895
H -1.0806120451 -2.6876337357 0.2660492522
H -1.1377636813 0.1395065698 1.4434885641
H -0.9304605311 -1.4680255212 2.3278700269
H -2.2045574048 -1.5167510703 -1.5925505919
H -1.7100166182 0.8502216951 -2.170512385
H -2.4989047314 0.7693724793 -0.5949887449
H -0.7634673195 1.0466159661 -0.6925414702
