11
0
C -2.1742739423 -0.0698791749 -0.8992108434
C -1.2449060609 0.7547351843 -0.5063598603
C -0.3488033554 1.579593057 -0.1257698369
C 0.8105386784 1.8479954077 0.3718987972
O 1.814815739 2.2174771213 0.8031013157
C 1.1708026697 -1.5634928017 0.5310653556
C 2.2529249919 -1.4139450301 1.0158516996
H -2.9368611112 -0.4051019914 -0.2078772739
H 0.2033835452 -1.6818916111 0.0980591033
H -2.2061847712 -0.414747491 -1.924839389
H 3.2169006168 -1.28055067 1.448376932
