10
0
C -1.3519538408 -0.0723959152 -0.3331180735
C 0.1266189661 -0.2278554012 -0.2195121518
O 0.6133561305 -1.3320415887 -0.8887307904
C 0.8862809488 0.5721709743 0.4863224534
N 1.6197285535 1.4147385709 1.005026553
H -1.6335609633 0.0393195263 -1.3824880748
H -1.6953875228 0.8016098204 0.218056052
H -1.8558427581 -0.9578285008 0.0611446657
H 1.7952675214 1.2410686687 1.9952643411
H 1.5705429645 -1.2892401549 -0.9364679745
