13
0
O 1.6910171572 1.3763822864 -0.988059022
C 1.5575587036 0.0515690604 -0.5188916563
C 0.1852504182 -0.2053089627 1.55964e-05
C -0.6817565981 0.6028120942 0.9027090305
C -1.7872056738 -0.4772056352 0.8004360523
C -0.7662083353 -1.1434424095 -0.1079654885
O -0.5787212381 1.6546780432 1.4626783319
H 1.431102673 1.9751687842 -0.2825170982
H 2.2891842022 -0.1634289437 0.2714968054
H 1.781415671 -0.6079974555 -1.358680787
H -2.7151941726 -0.146955647 0.3300521214
H -2.0121994692 -0.990130017 1.7373100334
H -0.8071153382 -2.0753791977 -0.6577759191
