14
0
C -1.6213271793 -0.5181618002 0.3465647893
C -0.5845700768 0.3112449207 -0.3823894459
O -0.1384760758 1.3704514708 0.5004095478
C 1.1487213098 1.1008876298 0.8318092024
C 1.6967220147 0.0772205081 0.1949371454
C 0.6825954574 -0.4838136012 -0.766484595
H -2.4490310933 0.1068432458 0.6829672328
H -1.172748557 -0.999976497 1.2182514745
H -2.01619147 -1.293618888 -0.3134248298
H -1.033588703 0.8028525454 -1.2471224225
H 1.5749900054 1.7616257655 1.5735513317
H 2.7078371233 -0.2754439485 0.3214590437
H 0.5244829721 -1.5584722319 -0.6419975752
H 0.9727672726 -0.3174571194 -1.8077748989
