11
0
N -1.8090981657 1.0369825208 0.3390326427
C -0.8917995716 0.1020151743 -0.1739907152
O -0.6265960858 -1.1095314615 0.5310774185
C 0.4068028688 -0.1257295731 0.4547606027
C 1.5864708932 -0.4531703707 -0.3119851797
C 2.5737283646 -0.7105824677 -0.9374788625
H -2.7583050488 0.8141986291 0.0753847301
H -1.7540175248 1.1171288854 1.3447873423
H 0.6089219364 0.3841946184 1.3945279455
H -0.9657439865 -0.0286931021 -1.2494825986
H 3.4487063203 -0.9448138531 -1.4966513256
