12
0
C -1.1972646596 -0.9133476304 -0.4739412363
N -0.2905462068 0.7912795053 1.0800845662
C -0.0027937507 -0.4268192332 0.3403103269
C 1.2002382933 -0.0426295357 -0.4639098685
N 1.5593907934 1.1625719931 -0.2397044532
C 0.6054112389 1.6172001606 0.7147930772
H -0.9504691068 -1.8294800375 -1.0127195665
H -2.037294477 -1.1142724364 0.1894115359
H -1.5014311021 -0.1552852717 -1.1965327664
H 0.2798205596 -1.2036659258 1.0629552546
H 1.7313438498 -0.6856217453 -1.1588613882
H 0.6741145683 2.6311101569 1.0905395184
