14
0
O -0.0392831037 0.0249591428 2.7099850218
C -0.0150210733 -0.2145301994 1.3166085487
C -0.0494969228 1.0738754421 0.5116985225
C -0.0943490642 0.8735162202 -0.9792650133
C -0.1178969213 -0.2771731037 -1.587052124
C -0.1440379586 -1.4250648587 -2.198152677
H 0.7727851411 0.4688858962 2.9600955375
H -0.8994348788 -0.8155481624 1.0988024557
H 0.829629064 1.6822612925 0.7567667822
H -0.9190040026 1.6606343749 0.8236944203
H -0.1136289112 1.7698714433 -1.5937211166
H 0.8587496573 -0.8144089628 1.0332683698
H -1.0830810929 -1.9148731885 -2.429312905
H 0.771596067 -1.9224773366 -2.4969478227
