14
0
O 3.1535104201 0.2322599414 0.3692939753
C 2.1433748247 -0.0711116566 -0.1999409366
C -0.3328382605 0.0378719018 0.0185352237
C -1.334844078 -0.3529856142 -0.9798519084
N -1.6932159196 -0.2958725486 0.4493067846
C -1.164171733 1.0690435287 0.6463881259
C 0.918562871 -0.6312111052 0.4816470331
H 2.0583502134 0.0417736306 -1.3015608847
H -1.7524408728 0.4020642375 -1.6434651862
H -1.3053582128 -1.3612484698 -1.3789900099
H -1.5791821852 1.8702615268 0.0376832736
H -0.9819761145 1.3159547661 1.6865356605
H 1.0380712003 -0.5417810892 1.562267316
H 0.8631708469 -1.6972690492 0.2311645331
