15
0
C -1.4166896666 1.3398704265 0.1225676032
C -1.1047468025 1.5068322218 -1.329323411
O -0.4450464962 0.745496256 -1.9872722898
C 1.3463588892 -1.2139460569 -1.1096223306
O 2.1563198324 -0.8720649639 -0.2899871558
C 0.9134922308 -1.2582528502 1.9836156238
O -0.1882303271 -1.5802168335 1.6274949597
H -1.0584979706 0.3867072152 0.5098155516
H -2.4955923441 1.4266439281 0.2739735994
H -0.9568738972 2.1657969298 0.6735679593
H -1.5241465189 2.4171181869 -1.8058471829
H 1.1907513203 -0.2026860079 2.1488248669
H 1.5415076608 -1.116434574 -2.1892283057
H 0.374472608 -1.6469224431 -0.8165778413
H 1.6999254817 -2.0026394349 2.1939583531
