13
0
O 1.9696687095 -1.6132296277 -0.2009595673
C 1.69354452 -0.4501031565 -0.3438618109
C 0.340600036 0.120338451 -0.1095580633
C -0.4949516903 -0.5720137965 0.9859718769
C -0.8439590269 -0.8218891756 -0.4053893416
C 0.2246325367 1.5567958392 -0.3368334699
O -1.007893821 1.9510312968 -0.1005638055
H 2.4483642254 0.2908887364 -0.6662802956
H -1.1162298338 0.0922907274 1.5710475706
H 0.0457275986 -1.3400388052 1.5230986182
H -1.7167824797 -0.3376483061 -0.8216229537
H -0.547608097 -1.7652223589 -0.8447077538
H -1.0522796773 2.8984521756 -0.2569540043
