17
0
C -2.5126504447 0.7311403196 -0.0093580016
C -1.4566967006 -0.3175426522 -0.1268806139
N -0.5024709267 0.0305987504 -0.9390690077
C 0.6809844103 -0.7817771575 -1.1821066109
C 1.7140468879 -0.6964377706 -0.0761836434
C 1.7538316325 0.4315257164 0.8740133174
N 1.3178651094 -0.893249978 1.3038375681
H -3.4754118849 0.2942239614 -0.2844053945
H -2.3464506954 1.6396187654 -0.6125783039
H -2.6087598152 1.0149176266 1.0414362343
H 0.3566773447 -1.8169593651 -1.293954411
H -0.5103525537 0.9366708965 -1.4126285464
H 1.1276796812 -0.4607946494 -2.1257929602
H 2.6498744014 -1.1794547422 -0.3433387249
H 2.7016393985 0.7637909092 1.2807059838
H 1.0059620617 1.2110023232 0.7700805529
H 0.3001910937 -0.9365879536 1.3571875618
