13
0
C -2.0064473008 -1.3532985048 -0.1379333479
C -0.6644008675 -0.7216877987 0.0922808807
O 0.3717332747 -1.341196246 0.0963393998
C 2.7533853874 0.4376062947 -0.1240213107
O 2.7307028636 1.4456061441 -0.7710241189
C -0.6647423872 0.7207355343 0.3124111092
C -0.6438374091 1.9068969646 0.4754933665
H -2.4647905487 -0.9154402071 -1.0273528558
H -2.6668761381 -1.1366146282 0.7040038913
H -1.8918501958 -2.427451877 -0.2648697463
H 2.4497314987 0.4154131294 0.9382755796
H 3.0793609406 -0.5276052191 -0.551840043
H -0.5972691177 2.9621454136 0.6155961954
