17
0
C 1.7441434816 -0.7393471095 -0.0407529412
C 0.6880382501 0.3458400327 0.1472783188
C 0.4271117588 1.0869247871 -1.1617256211
C -1.7892867055 0.5725958105 0.9653929771
O -2.5942510693 -0.2680208244 0.3325491672
C -1.5768174221 -1.0982372588 -0.0766546906
C -0.5884845294 -0.2538739399 0.7211437759
H 1.9731419757 -1.2472014255 0.8987437238
H 2.6723795853 -0.3141231017 -0.4273378259
H 1.3969753946 -1.4897636174 -0.7558320398
H 1.0597438091 1.0641373469 0.8871720977
H -0.3252261308 1.868150027 -1.0391153671
H 1.3417002324 1.5586339138 -1.5262506268
H -2.0294752509 1.6261277154 1.0215610558
H 0.0722914456 0.3928059614 -1.9257417164
H -1.783794839 -2.1599882721 0.0451330676
H -0.380347986 -0.8545400453 1.618307645
