13
0
C 0.5689543544 -0.988649653 0.447249033
C -0.8844727731 -0.9615367999 -0.0337229487
O -1.5123090285 0.2627759417 0.3555867614
C -0.8643358452 1.3612005544 -0.0892493035
N 0.4377654954 1.3087968852 -0.2558418164
C 1.2521739603 0.2616844622 0.0063918343
H 0.560167872 -1.113165314 1.5366736531
H 1.0676453585 -1.8712093969 0.0355550723
H -0.9295726528 -1.0578321765 -1.1230816581
H -1.4848782308 -1.7500263708 0.4157459885
H -1.4271362185 2.2667612149 -0.2300162987
H 0.8627252964 2.1455002526 -0.6239376288
H 2.231776412 0.2945174001 -0.4409566884
