13
0
C -1.353089405 -0.6658576038 0.500147857
C 0.0831103118 -0.6132715361 0.0292707392
C 0.3408017551 0.3617020198 -1.1399841105
N 1.179087821 1.4223474249 -0.5772988528
C 1.4252019447 1.0741962858 0.6078876055
O 0.9163613583 -0.0768485471 1.0873005085
H -1.4473941218 -1.2770846875 1.398070846
H -1.9851284489 -1.0962842624 -0.2794366922
H -1.7167331197 0.3395408045 0.7223239902
H 0.4549004861 -1.6176659051 -0.181149266
H 0.8617324503 -0.1108585486 -1.9750853703
H -0.5874898898 0.7864463744 -1.5296511975
H 2.0332448582 1.6319461814 1.310254943
