16
0
C 2.1875914242 -0.066621543 0.245322483
N 1.019289125 -0.6176796494 -0.4154701141
C -0.1677073367 -0.8351378437 0.4497215976
C -0.6007686419 0.6672896204 0.5214998737
C -2.0169462801 0.3450212102 0.0333951548
C 0.0181576706 0.3729631191 -0.8858208786
C -1.1395611195 -0.6441980468 -0.7397011735
H 1.9624202663 0.7474224199 0.950109318
H 2.8805298758 0.3136897539 -0.5077220897
H 2.6976919686 -0.8613682706 0.7931522552
H -0.2097846332 -1.5882184644 1.2371772054
H -0.2932178832 1.4190968644 1.2451433217
H -2.5179126333 1.1168326837 -0.5541013836
H -2.7015257154 -0.0806684875 0.7696081206
H 0.2009529081 1.0714594645 -1.7028280053
H -1.4056079951 -1.4073998306 -1.4675806853
