10
0
C -1.5625030845 -0.140158649 0.0499686566
N -0.1307295374 0.0346593357 0.1751838702
N 0.4148620209 0.8872331472 1.0407253823
C 1.7525148369 0.7909093983 0.8916133671
N 1.8491731187 -0.1569486477 -0.0963640514
N 0.6983549148 -0.6257107761 -0.5412250826
H -1.9574844412 -0.4827730618 1.0038362079
H -1.7505001531 -0.8740089706 -0.7282088911
H -2.0093415558 0.8174869035 -0.2072780582
H 2.6924708807 -0.5209616797 -0.5058634009
