14
0
C -1.3712315426 -0.2228005102 -1.4801841122
N -0.8920906317 -0.2119094168 -0.1213735907
C -0.2121210767 0.2388392749 2.4563894796
O 0.0450925543 0.0993346534 3.6069887979
C 0.3171294284 -0.0728732661 0.1673223315
O 0.7016899718 -0.0691801097 1.4960416584
C 1.5362000331 0.0714845751 -0.6878551378
H -2.1478644071 0.5364801778 -1.5854954027
H -0.6107857655 -0.0414352064 -2.2452325939
H -1.8400398262 -1.1884421241 -1.6782598454
H -1.1507898798 0.6292939204 2.0476665701
H 1.3208897201 -0.0700993611 -1.7427033157
H 2.2798352585 -0.6607168138 -0.3732385804
H 1.9696891634 1.0619112066 -0.5400262588
