14
0
C -1.1354874743 -0.1464429139 -0.016181973
C -0.2011961044 0.2114507041 -1.157130327
C 1.1846596152 0.4021033081 -0.6025382195
C 1.2612107871 -0.4039527724 0.451290848
C -0.0781121779 -1.0836310789 0.5384202446
C -0.6508975004 -1.2066563458 -0.8602285121
H 0.0024891432 2.0902003951 1.6160439603
H -2.1147385214 0.175243547 0.3016974848
H -0.5769421768 0.7328512075 -2.0275391335
H -0.2974356407 2.6847275143 1.9530833313
H 1.9353485096 1.0679609368 -1.0010443556
H 2.0895505072 -0.5609392093 1.1257089051
H -0.3342396935 -1.8084426846 1.2997497204
H -1.1241602727 -1.9936346084 -1.4263299737
