13
0
C -1.6214392044 -0.4281493734 1.068886824
C -0.3357550891 0.0173164385 -2.4853380961
O 0.3861386028 -0.4243020125 -3.2239924139
C 1.6534633736 0.3612035684 0.1709690511
O 1.5124185356 1.5722901687 -0.4206188412
C 0.6988873572 -0.2348009183 0.8740415867
O -0.4880989782 0.414653009 1.0807573499
H -2.4838934106 0.1915075256 1.3072180925
H -1.760821432 -0.884170946 0.0838709137
H -1.5263276525 -1.2175981977 1.8225356278
H 2.628203365 -0.0834755609 0.0313622784
H 0.6191782771 1.8834285759 -0.2330418332
H 0.8349802554 -1.2028192771 1.3433974606
