14
0
C 1.5534230577 0.3854502981 -0.7875010944
C 0.8541512188 1.3345782422 0.1431256851
C -0.3715142276 1.1182468055 0.5934734144
O -1.140081566 0.0340672617 0.278079788
C -0.5723057067 -0.8728409592 -0.5710272747
C 0.6418043328 -0.7698796775 -1.0878031227
H 1.8445447166 0.8968965195 -1.7125661588
H 2.4903657738 0.0292929123 -0.3430295676
H 1.3586496144 2.2355799948 0.4678174393
H -0.8988007649 1.7836742445 1.2630475425
H -2.5961973721 -1.3208664986 2.0310624154
H -1.2487309855 -1.6929785835 -0.7691772357
H -3.0016710598 -1.7569697074 2.4799526901
H 0.9760249683 -1.5570218524 -1.7515235209
