18
0
C 2.4842141137 1.239618179 0.2428928717
C 2.5306397911 0.1009801416 0.9133649314
C -0.7511368921 -1.0244127454 -0.9204399542
C -0.9536116868 -1.4930159523 0.4924560001
C -1.8009706197 -0.3881170488 -0.0611098234
C -1.6157698545 1.0221597065 0.4343006757
H 2.416861041 1.2605897372 -0.8391725269
H 0.1369558477 -0.4408363383 -1.1309842782
H 2.511125705 2.1988909383 0.7471027054
H 2.5993326669 0.0809247023 1.9952388452
H 2.5001816199 -0.858112361 0.4088295237
H -1.0621992941 -1.677024604 -1.7256637972
H -0.1998325741 -1.2244315605 1.2228314853
H -1.4040354538 -2.4646629775 0.6484240116
H -2.8253351952 -0.656949076 -0.2970281599
H -2.1878498287 1.199137458 1.3481248844
H -1.9396211564 1.7509137282 -0.3126355331
H -0.5634062298 1.2160370729 0.6551171382
