13
0
C -0.7601796792 1.2300688885 0.2401566951
C 0.1584924627 0.1454708647 -0.2365006723
N -0.5261803855 -1.0401414467 -0.6906992772
O -0.945823428 -1.7750692605 0.448742942
C 1.5532075618 0.0584683278 0.1955609565
O 1.1926959457 0.5130772728 -1.1123012273
H -1.4429255578 1.5090448549 -0.5634016293
H -1.3447632835 0.8755402313 1.0897884386
H -0.1906250732 2.1062593749 0.5469205471
H -1.8901235635 -1.8781306629 0.3143178182
H 2.0430018744 -0.9103899991 0.2298934136
H 1.9688104606 0.8208908297 0.8476979988
H 0.1559456656 -1.6292012753 -1.157748004
