14
0
C -0.4996976473 1.0776741041 -1.0260827418
C 0.2373214717 0.0186464842 -0.6672459735
C 1.6345662381 0.1468467776 -0.139173653
N -0.2061819296 -1.285376545 -0.7653967851
C -1.472226729 -0.0697749 2.129100673
N -1.7039835549 -0.7680725514 3.0059256932
H -1.237521203 0.5665580832 1.2900870446
H -1.5048563995 0.9652306405 -1.4167027114
H -0.0764316021 2.0713857869 -1.0072577112
H 2.3279008355 -0.4240769169 -0.7603081713
H 1.6981184104 -0.2520683805 0.8780239821
H 1.9530309714 1.186732669 -0.1207742557
H 0.1944747479 -1.9553690826 -0.1320321967
H -1.1850316097 -1.4296281688 -0.9443641933
