14
0
O 1.7862180247 0.1825223234 -0.6256308788
C 1.3237466094 1.0467770594 0.3064223446
C 1.4319172072 2.3615760756 0.1828053924
N -1.2235856749 -0.6437324104 -0.7803188051
C -2.433800702 -0.8602661846 -1.0556861696
C 0.7115902059 -2.6215021456 0.4353115541
O 0.0379299233 -3.4747368342 0.7147350057
H 1.5135173037 -0.711539764 -0.3890756458
H 0.8506454124 0.5913211207 1.1732080212
H 1.05954469 3.0065415277 0.9649833469
H 1.9036171705 2.8077104616 -0.6833644592
H -0.8864033886 0.2257169013 -1.1923712129
H -3.0556184086 -0.198771787 -1.6656431708
H -2.9100643733 -1.7624383439 -0.6701343228
