9
0
O -0.5260345064 -1.3209970683 -0.4214330419
C 0.612157954 -0.7793293253 0.2760934349
C 0.3450003873 0.6733883437 0.2761804192
C -0.8133550305 0.8808607758 -0.3531335757
C -1.3858302841 -0.4069488619 -0.8108948375
H 1.5149808062 -1.0659642922 -0.268186055
H 1.0066119589 1.402778876 0.7233913422
H -1.2975154306 1.8306664042 -0.525476694
H 0.6458821452 -1.224801852 1.2731180078
