11
0
N 1.5934687193 -0.2171056591 -0.3274310832
C 0.2335781095 -0.2291285065 0.0945383285
C -0.5293481903 0.989538851 -0.294225069
N -1.7830441774 1.0471935646 -0.1587084727
C -0.4743029406 -1.446749606 0.3894675368
N -0.154893068 -0.8551872156 1.438201155
H 2.0247165893 -1.1257682218 -0.2483894354
H 2.14513911 0.4452926461 0.2028395944
H 0.0780327462 1.8034500046 -0.7049506805
H -2.1432890739 1.9483789037 -0.4606188425
H -0.9874308241 -2.3428527611 0.0654539685
