11
0
N 1.7078024296 0.1763897068 0.0559820827
C 0.2480904112 0.1958720729 0.0295237024
C -0.3462894861 1.4143083091 0.1904032884
O -1.6924596258 1.0930963354 0.1189463086
C -1.8649544251 -0.2350811846 -0.0725811896
C -0.6764197174 -0.8761726176 -0.1402051583
H 2.1010849025 -0.3625539974 0.8262272697
H 2.1344056272 -0.1380404661 -0.8144015745
H 1.9254505457 1.1726762613 0.197384911
H -2.8802332387 -0.5937319349 -0.1427260049
H -0.5178664231 -1.9331454849 -0.2878536353
