13
0
C 1.65622444 -0.2413169092 -0.5594135121
C -0.5187808315 -0.1674437234 0.7960909236
C -0.2952454687 1.187627444 0.3211220835
N 0.2249260781 0.0359335333 -0.4757941797
C -1.75108419 -0.8782788789 0.7528780274
O -2.7754474762 -0.5735746763 1.3379655156
H 1.8005017097 -1.2901868647 -0.8155089071
H 2.1274992448 0.3976927468 -1.3079266286
H 2.0853050683 -0.0590682502 0.4230843997
H -1.0726156982 1.748632647 -0.1968790594
H 0.4882751966 1.8090376831 0.7484009491
H -0.2687538606 -0.0962841269 -1.3516706076
H -1.6990632122 -1.8361456246 0.1804219954
