12
0
C 2.4709900371 0.3826511642 0.1618813865
C 1.2852310001 -0.1323692973 0.2925705148
C 0.0955682681 -0.6394752122 0.4401802009
C -1.1796119709 0.1610503003 0.3655819957
C -1.9092285396 -0.1200943676 -0.9289196529
O -3.0340650294 -0.5274169386 -1.0002250268
H 3.0238577241 0.7354638529 1.0247745355
H 2.9404149403 0.4676256069 -0.8112431919
H 0.0024149761 -1.7098533161 0.6014013598
H -0.9428388616 1.2285525872 0.3877974356
H -1.846398016 -0.0711114047 1.1971279529
H -1.3129365283 0.0726030251 -1.8457915102
