10
0
C -1.6927806355 -0.2870584099 0.2445034472
N -0.3885503575 -0.2796417553 0.0598272411
N 0.4350902349 0.7126131138 0.4918897906
C 1.6800529936 0.3769199736 -0.0048820401
N 1.6176391121 -0.7644850051 -0.5850932056
N 0.3395775871 -1.211665693 -0.5509080789
H -2.2309538534 -1.1277425198 -0.1524010417
H 0.0516061001 1.634821731 0.6029669251
H -2.1341016866 0.4903083933 0.8421385916
H 2.5570695051 0.9799621714 0.1555723704
