8
0
N -1.4434406223 0.3732965803 0.1108505823
C -0.2340415105 0.7554109622 0.0173303459
C 0.8698266171 -0.1696480459 -0.0742264615
N 0.6002898643 -1.4477988122 -0.0582583483
N 0.3160335402 -2.5276703909 -0.0401623918
H -2.072699726 1.1669149693 0.1650481681
H 0.0741603149 1.8055825027 -0.0018255318
H 1.9092005223 0.1001572347 -0.156481363
