12
0
C -1.2860554653 -0.3477027872 0.0294073931
C 0.2026839911 -0.2601459755 0.1376562271
N 0.7088195377 1.0363787179 0.3576586181
O 0.1668838312 1.9857558239 -0.5400627708
C 1.0134030276 -1.3155365469 0.1355066714
H -1.6037209304 -1.3882702011 -0.00263645
H -1.6351751905 0.1534334362 -0.8741020166
H -1.7601347265 0.1416043216 0.8834963693
H -0.2352581851 2.640461471 0.0349131748
H 2.0906066393 -1.2062492312 0.1901004007
H 0.6142883098 -2.3197283332 0.1144639368
H 1.7116651613 1.0613523046 0.2211714461
