11
0
N -1.0763353011 -0.8867657898 -0.3678420065
C -0.2082546657 0.1327596951 0.0190363109
O -0.7424519007 1.2971530827 0.4943372824
C 0.0824360131 0.52076197 1.3879304108
C 1.2727307767 -0.5091781583 -1.6930135538
O 0.8978514836 0.4306050322 -0.9005086375
H -0.5489758 -1.6115418466 -0.8460046641
H -1.7793275561 -0.5257046187 -1.0007459462
H -0.4545023294 0.0279475511 2.1901863684
H 1.0377220401 0.9761763904 1.6248117712
H 2.1167462393 -0.0476993082 -2.2466803357
