19
0
C 2.3783767461 0.5521376284 -0.3678675436
C 1.4523359611 -0.1993071462 0.5648719837
O 2.0182290698 -0.0969024 1.8621462777
C 0.0240675012 0.3492116571 0.5758070182
C -0.6631815036 0.2589371361 -0.8086209645
C -2.0675540725 0.5900072456 -0.499771266
C -2.9069852067 -0.6061858081 -0.3848249289
H 2.0719166214 0.437599473 -1.4080618075
H 3.3932349108 0.1675130221 -0.2662536743
H 2.3870847074 1.6152337734 -0.1178188361
H 1.4189586468 -1.2556867275 0.2602914175
H 1.4604807794 -0.5690704414 2.4833014285
H 0.0393256596 1.3855892316 0.9174027041
H -0.4971352489 -0.7496567288 -1.2231220234
H -0.2090788901 1.0058561997 -1.4621518678
H -0.5529173968 -0.2212210738 1.3136084728
H -2.404510868 -1.5714774958 -0.2204056595
H -3.3066088407 -0.626267869 -1.4170463321
H -3.7791275765 -0.4861236762 0.2578976012
