16
0
O 2.3661671152 0.9634307381 0.3130255359
C 2.5156370164 1.0096366066 1.6012767536
C 0.1371241621 -1.2568776581 -1.3100594215
C -0.4018415463 -0.5529809124 -0.0904666954
C -1.8243136039 -0.1022186072 -0.05695684
C -0.7345635055 0.9252907778 -0.1449298611
H 1.4446528245 0.815495312 0.0205233045
H 1.4941356412 0.8658509138 2.0517105854
H 1.2242039691 -1.1739088226 -1.3820408987
H -0.1127392499 -2.3192127904 -1.2849692018
H -0.2910053258 -0.8348726579 -2.2219953953
H -0.0090550434 -0.9126470876 0.8557227253
H -2.4226632595 -0.2725015662 -0.9430062043
H -2.3678535192 -0.1784981696 0.8749382437
H -0.6072401947 1.4373304177 -1.0915297403
H -0.5616074804 1.5423065063 0.72926211
