13
0
C -1.8705780209 -0.2281017318 -0.2266667224
C -0.5662141306 -0.0094509304 0.5241050082
O 0.3021829387 -1.1568579801 0.3574272509
C 1.5386418895 -0.7476525818 0.0122534162
O 2.4652377245 -1.4841085473 -0.1254508253
C 1.4816276487 0.7630619953 -0.172763943
C 0.1443537428 1.2397098247 0.2044654209
H -2.3211169622 -1.1674183405 0.0900953582
H -2.554507318 0.5933254078 -0.021070556
H -1.6885506444 -0.2754755096 -1.3006963909
H -0.7771802424 0.0898435304 1.6024093052
H 2.3076818795 1.3038298968 0.2929736447
H 1.5780974948 1.0070929667 -1.2424969664
