11
0
O -0.1469308749 1.6737421659 1.0912390757
C -0.029717617 0.714463657 0.2351593598
C -1.1012096333 -0.2754052356 -0.0324592969
C -0.2403716999 -1.2860170693 -0.7752394564
C 1.0692074508 -1.1095402318 -0.5805326186
C 1.333845102 0.2181943771 -0.0834739027
O 2.3105773615 0.8684863364 0.2390675044
H -1.4652612329 -0.7125656338 0.9016540621
H -1.9664941492 0.1525846256 -0.5488317668
H -0.6797664914 -2.0079451133 -1.4549347294
H 0.7244147842 2.1222921217 1.1149317687
