12
0
O -0.7955645628 2.2009132967 0.1654766574
C -0.6183171724 1.0296938165 0.1012863602
C -1.4897518446 -0.2268795158 0.1310364417
C -0.1802323941 -1.0293667631 -0.0257272428
N 0.544795796 0.2480013103 -0.0370762288
C 1.8918304817 0.5136489267 -0.1505114155
O 2.3830467115 1.6049484541 -0.1536347937
H -2.0186040538 -0.3654447969 1.0719874813
H -2.188321063 -0.2951569219 -0.7004347706
H -0.0905742709 -1.5863015236 -0.95843094
H 0.0767742359 -1.6678806181 0.8194287133
H 2.4796261365 -0.419833665 -0.2389232626
