13
0
O 0.484750804 -0.7706133197 0.8299646873
C 0.8895604066 -0.1622100555 -0.3174850397
C 2.0101934812 -0.4913662016 -0.9534418312
C -0.9028288926 -0.5147792015 1.0177276376
C -1.1390507228 0.8047108401 0.2861143432
N -0.0268840074 0.8336248058 -0.6504880615
H 2.3437422783 0.084115183 -1.8036044359
H 2.6021027151 -1.3237634916 -0.6069754161
H -1.0985015321 -0.4667040711 2.0875943121
H -1.4831666496 -1.3333305707 0.5790940683
H -2.1018466898 0.8265441398 -0.2251648833
H -1.0928886767 1.6572302025 0.9690123389
H -0.2393985142 0.9225617408 -1.6276607196
