14
0
C -0.570657563 -1.0033064945 -0.6122216248
C -0.4090415149 0.1638439767 -1.2360513878
C -1.0436257527 0.9727603278 -0.1293327159
C -1.2322575902 -0.3927951501 0.6009493391
O 1.8991967412 0.615930965 1.4993773036
C 2.2007376007 -0.0377371223 0.5421400919
H -2.2704650443 -0.6855048714 0.768736048
H -0.332607826 -2.0277428576 -0.8747510545
H 0.0080277383 0.4428099544 -2.1967407364
H -1.9705948958 1.4847022479 -0.3943326986
H -0.3813070059 1.6710824852 0.3861452788
H -0.6793581467 -0.4803244999 1.5384570547
H 2.1946448417 -1.1437141252 0.5612235014
H 2.5121614175 0.4261391637 -0.4122953994
