14
0
C -1.7010994536 0.0702983804 0.4020721223
C -0.5183651909 0.0089760371 -0.5431583636
C 0.8659107049 0.3312215384 0.0081827716
C 1.4608981428 1.3719099723 0.5621812896
N 1.3012639085 -0.970653849 -0.2868247608
C 0.083059046 -1.3891169264 -0.7898688221
O -0.2976147481 -2.4381373053 -1.2148261098
H -1.9564387743 1.1041254108 0.6377187092
H -1.4809798516 -0.448438074 1.3366812099
H -2.5716344191 -0.4027073553 -0.0542006101
H -0.7225654362 0.5234939381 -1.4843469244
H 0.9170922747 2.2963411698 0.6944053904
H 2.4902599142 1.3323058398 0.8935370145
H 2.1791038827 -1.4457827763 -0.1552439167
