14
0
N 0.8698956427 1.2249394978 0.5446549674
C 0.1275129576 2.0960309641 0.8974179382
O -0.5048907643 2.9811561657 1.3161608563
C 0.8493058048 0.1164327262 -0.3743631274
C -0.3966804837 -0.7179768189 -0.2169324544
C -1.5681063284 -0.4867377638 -1.054828014
O -0.6908071273 -1.5775273197 -1.2967970453
H 1.6861789086 -1.1339368462 2.9135773645
H 1.663673047 -0.4674097132 2.5796868057
H 1.7298348227 -0.4972199482 -0.1808167146
H 0.9191771152 0.477303453 -1.4034504573
H -0.5386222109 -1.1549746296 0.7696492564
H -1.5415545465 0.3022795272 -1.8019383857
H -2.5538688373 -0.7573192945 -0.6900529899
