14
0
C 1.8912671369 0.1097138138 0.1838197459
N 0.5512670452 -0.5151463334 0.2628042661
C -0.5254027206 0.2511650074 -0.4439345006
C -1.7922798634 -0.5601342006 -0.4820765645
C -0.5974922739 1.548108486 0.0957262754
N -0.6003941377 2.6295957729 0.5173218376
H 2.1393780172 0.2258752797 -0.8677435452
H 2.6190904575 -0.5162025825 0.6992568378
H 1.8371274455 1.0909000702 0.6496075238
H 0.3324295374 -0.6986374919 1.2526440024
H 0.5898990617 -1.4258769609 -0.1877339275
H -2.5811964617 0.0353746553 -0.940072397
H -1.6835372797 -1.4579839314 -1.1007163894
H -2.1674139644 -0.8801755844 0.5071668354
