13
0
O -1.6334042244 -0.792797109 0.7603297266
C -1.05441776 -0.713719214 -0.526572077
C -0.736889296 0.7003098333 -0.9297258928
C 0.4389199539 1.2988170222 -0.8818758991
O 1.6323472598 0.7309243462 -0.4331927744
C 1.6244911821 0.0221198921 0.6530674092
C 1.6853644212 -0.6205218241 1.6603717927
H -0.9508376248 -0.5524050786 1.3938489138
H -0.1633030373 -1.3442790207 -0.5985982529
H -1.7962706833 -1.1177965027 -1.2163958644
H -1.5571382812 1.3150141356 -1.282666998
H 0.6198324301 2.3094282654 -1.2211870206
H 1.7524556599 -1.1979647457 2.550356937
