12
0
O -2.415684314 0.7621355925 -0.3165435199
C -1.6382214703 -0.3791901825 -0.0691319587
C -0.1672796456 -0.1017795198 0.0366814563
N 0.3000972668 1.0552542533 -0.3767143666
O 1.6010119973 1.120151129 -0.2247428228
C 2.0090324157 -0.1591584304 0.3489887521
C 0.8395202454 -0.9894984638 0.5264994666
H -1.9411378728 1.3377465543 -0.9212646179
H -1.9780695231 -0.8127315758 0.8728371318
H -1.7869113553 -1.1449872823 -0.8428985997
H 2.7281559911 -0.6085106018 -0.343820483
H 2.5256742648 0.0505125273 1.2907505617
