15
0
O -2.0505829215 -0.503411797 -0.1458160536
C -1.3319139999 -0.0213024702 0.9688369718
C -0.3954110231 1.1263481656 0.6125218346
N 0.6231020527 -0.2218493235 -1.1844269051
C 0.8927873721 0.6735841193 -0.0710334247
C 1.3418565706 -1.2461851867 -1.3103207385
H -1.4317846211 -0.5662359799 -0.8827852293
H -0.7621817888 -0.8331613847 1.4475855174
H -2.0776451419 0.3154250078 1.6917032372
H -0.9384134452 1.8194351238 -0.0353965075
H -0.1229998218 1.6754200942 1.5182887377
H 1.4084505387 1.5491607801 -0.4755305451
H 1.565401337 0.1995549168 0.6588195019
H 1.158837857 -1.9307061386 -2.1362032837
H 2.1566000354 -1.4925069271 -0.6182741133
