16
0
C 1.5879430398 -0.8264994511 -0.5802831146
C 0.349211104 -0.0145170966 -0.397168163
C 0.3193621459 1.458226034 -0.5592510985
N -0.8076939968 -0.621474913 -0.2103636894
C -2.047118609 -0.1285299927 -0.0732171653
C -0.2845321282 0.2163111736 2.6354576923
O -0.3359277027 -0.7757303636 3.1651958821
H 2.3852924093 -0.5037870444 0.0956705645
H 1.9852834311 -0.7535877367 -1.599780709
H 1.4036027548 -1.8853071717 -0.3793830714
H 1.3241740484 1.8610792663 -0.6793347939
H -0.1460445467 1.9405949542 0.3100476218
H -0.2780913906 1.752892221 -1.4351962692
H -0.7476830486 -1.6279508123 -0.1287704429
H -2.2171061296 0.9275153834 -0.1828005141
H -2.8449983812 -0.8294714503 0.0960682705
