15
0
C -1.393286628 -1.8559985151 -0.058159479
C -0.1987512204 2.0554592638 -0.7311322117
C -0.2474330529 1.5926086209 0.6590509493
N 0.6656655682 1.1703261204 -0.4102651927
C 1.7006006387 0.3696638108 -0.5953314032
C 2.0930558373 -0.4809075394 0.4540765784
N 2.4144781606 -1.183979015 1.3110480299
H -2.1840694923 -1.5653268736 0.6329195252
H -1.6474944432 -2.8136479106 -0.5094000171
H -1.2954883109 -1.1056819697 -0.8431517188
H -0.414498191 2.7481716368 -1.5209899804
H 0.2195425229 2.1605693906 1.4626396987
H -0.9786727145 0.8499836904 0.9693654749
H -0.4507078526 -1.9491229729 0.4799444511
H 2.1907421783 0.3618412624 -1.5550407046
