13
0
C 0.7793944721 -0.4249558117 0.5323512141
C -1.491078132 -1.5662460403 -0.0807756749
O -0.6450339418 -0.1958113041 0.321791293
C -0.7299734682 0.944313873 -0.4687013855
N 0.3235517543 1.5777572986 -0.6773314357
C 1.3973221845 0.8922717024 0.0512439281
H 0.9161429441 -0.6453568261 1.5871166669
H 1.0382201754 -1.2945800874 -0.0672227716
H -1.6674842139 -1.3335803242 -1.14511065
H -2.4240189716 -1.3102883551 0.4420688437
H -1.731203032 1.1595960449 -0.8168173223
H 1.7154397109 1.5323408358 0.8757024975
H 2.2516295183 0.7396199942 -0.6064912034
