15
0
O 2.3024605224 0.1232284199 -0.3463772393
C 1.6266425036 0.0447228122 0.8349646952
C 0.3697982219 0.4451690648 0.9613047603
C -0.4686560525 0.9950018468 -0.1535481697
C -1.5620846907 0.0148309609 -0.5928251537
C -0.9840115844 -1.2696717681 -1.1249295733
O -1.4206873683 -2.3635032872 -0.89369771
H 3.179899071 -0.2441773482 -0.2429234939
H 2.1788822996 -0.3676646041 1.6734666748
H -0.0952239411 -1.1463632215 -1.7812152857
H -0.0847903726 0.3312332412 1.938584029
H -0.9395157199 1.9290621722 0.1626519257
H 0.1688973509 1.2381162829 -1.0063598667
H -2.1494765552 0.4606374096 -1.4045149564
H -2.2514146847 -0.2255329816 0.2187563636
