11
0
C -1.5098931512 0.5541028761 -1.1021241771
C -0.4771444358 -0.0397285819 -0.1986256957
O -0.609212782 -1.0455488138 0.455597451
C 1.5021616169 -0.9858418443 1.3868067763
O 1.6314627216 -1.8939700943 2.0925230947
C 1.6376903724 0.1166921545 0.6659640223
O 0.6611602755 0.6505853409 -0.1627823085
H -2.4022037353 0.7727991078 -0.5159139064
H -1.7802983706 -0.1854766246 -1.8553219877
H -1.1481122875 1.4596377848 -1.5814450431
H 2.559655776 0.6698376949 0.692858774
