13
0
C -1.6052372414 0.3016625504 -0.4172557503
C -1.809155262 -0.429904346 0.8694287734
O -0.932468405 -0.9155626009 1.5368955066
C 2.3630813273 0.4741113252 -1.3310612522
C 2.1329285669 -0.2061990432 -0.2354236558
N 1.9953409611 -0.8495864592 0.7822007098
H -2.1379638359 -0.2263644413 -1.2130027739
H -2.0582515556 1.293648798 -0.3425120426
H -0.5495975869 0.388983435 -0.6718885061
H -2.8604225394 -0.5189899115 1.2084599548
H 1.0387300168 -0.938972071 1.1373056128
H 2.5842874089 1.5299445367 -1.2756048379
H 2.3567931451 -0.0247247722 -2.2890567386
