13
0
N 2.4979445744 -1.2365227227 1.2289464324
C 1.6465627654 -0.5257846768 0.9376243068
C 0.5844259286 0.3968771434 0.5510379415
C 0.3150882528 0.6405727865 -0.9466346118
C -1.1258013385 0.1315868354 -0.7017707931
C -1.2753264432 -1.2373757729 -0.2025704081
N -0.7993988881 -0.1565584333 0.7344968743
H 0.7018624884 1.3285171258 1.105266081
H 0.8899800251 0.0277861377 -1.6368013755
H 0.4123872774 1.6922574914 -1.210984412
H -1.976539858 0.7588095604 -0.9489598545
H -0.4268015922 -1.886386433 -0.4360142285
H -1.358129192 0.106450958 1.5320750473
