12
0
O 1.7718373691 1.7384450398 1.0675837923
C 1.7542040384 0.6073766447 0.6729307312
C 0.6004543962 0.0333218883 -0.077820336
O 0.8661121977 -0.9810148245 -0.9827768264
N 0.0941694522 -1.3047478095 0.2077013917
C -1.2773425953 -0.8011634479 -0.1736685604
C -0.7578029029 0.6374017655 -0.3567043156
H 2.5819537822 -0.1061945118 0.844174918
H -1.9445479924 -0.936724031 0.6753982185
H -1.6650315998 -1.3173393395 -1.0490578476
H -0.8633003454 1.1115217948 -1.3298880419
H -1.0820028 1.316659831 0.428623876
