11
0
C -2.7470258179 -0.2101558352 0.4130151952
C -1.2905056253 -0.2540041392 0.3362535893
C -0.0993588743 -0.2650373793 0.2633466029
C 1.8942009881 0.7085727711 -0.2782179488
O 1.2100065441 -0.3687707301 0.2203885079
N 3.1662454186 0.3777956784 -0.2254734828
H -3.200865664 -0.7628985104 -0.4109390627
H -3.1012793528 0.8205850467 0.3638057836
H -3.1017604082 -0.6431873151 1.3495080742
H 3.4965910493 -0.5134993589 0.1271882431
H 3.8429067427 1.0435307717 -0.5497145018
