17
0
O 2.1978523966 -0.3304102764 0.7899392319
C 1.5394303467 -1.3292319512 0.6823907264
C 0.1555884197 -1.3755832105 0.0975771847
C -0.3605036092 -0.0257285915 -0.3468941537
C -1.8513840942 0.059956828 -0.705406655
O -2.1055482863 0.9831108336 0.3595635759
C -0.7273419861 0.9682686908 0.7638956742
H 2.2959194895 2.0386309685 -0.3600595743
H 1.9416250353 -2.3034638587 1.0294844103
H 2.2812692758 2.687465371 -0.7288242068
H -0.5028378921 -1.8243639451 0.8525331896
H 0.1754530821 -2.0941190584 -0.7312529415
H 0.3005035434 0.3999249742 -1.1007291696
H -2.418648454 -0.8696473517 -0.5841916517
H -2.0811053047 0.4917953403 -1.6834630632
H -0.2648340104 1.9543791582 0.6882401445
H -0.6074019525 0.5945670791 1.7860052782
