12
0
C -2.0948350932 0.0086582861 -0.356372694
C -0.7887805709 -0.0341103278 -0.1117854204
C 0.2032559882 1.0391390164 -0.1839794814
C 1.3898387998 0.5464965037 0.1454798853
C 1.2405506157 -0.9080101144 0.4590246273
O -0.143614291 -1.1751680965 0.2701005774
H 1.515760729 -1.1504841076 1.4913198982
H -2.7115402797 -0.8737888464 -0.2626356319
H -2.5521619066 0.9390574238 -0.6586188758
H -0.0356534408 2.0544131194 -0.4632752958
H 2.3308059279 1.0757506351 0.1900174239
H 1.826275522 -1.5492024917 -0.2085370127
