8
0
N -0.6123095019 1.0163700738 0.6030216525
C -0.8967624196 -0.2384997796 -0.0823877756
N 0.3624056689 -0.8704865319 -0.3438098919
C 1.2058735993 -0.0591144702 0.1388953124
N 0.6186156526 1.1188849153 0.7308532342
H -1.445061671 -0.027678221 -1.0052637653
H -1.537427795 -0.8582105383 0.5518443276
H 2.2804774666 -0.1848944482 0.1361589062
