12
0
C -0.4097585307 -0.9658710248 0.3753691239
C 0.1473542251 0.1452889214 1.2350842529
C 1.0734181338 0.5041763958 0.3477777157
C 0.6752348506 -0.5456043362 -0.6639401526
H -1.4405234826 -0.8327598802 0.0390118254
H -0.2983843172 -1.9763305974 0.774151917
H -1.4544440488 1.7141916458 -0.8181023767
H -0.1222265426 0.5073907135 2.2197847769
H -1.8587318516 1.7360960322 -1.4447916385
H 1.8408898155 1.2685814914 0.3396306766
H 0.2798209394 -0.1652967366 -1.6084360166
H 1.4266548092 -1.3082636247 -0.878357104
