7
0
O 1.5312070946 -0.6270733115 0.7482585512
N 0.2966834923 0.978864389 -1.0956988946
C -0.5410355889 0.8799755557 -0.1891037011
C -0.1469448084 -0.4145931132 -0.7044830127
N 0.7979586291 -1.2433757182 0.0329647923
H -1.1137131678 1.4760894855 0.5053826834
H -0.7406936509 -0.9838172872 -1.4077814184
