16
0
C 1.8204853323 -0.1003181178 0.1403908768
C 0.6827143066 -0.1393583225 1.1539647262
C -1.4206680834 -1.2478458047 -1.777251014
C -1.3296193094 -0.2017575768 -1.008995541
C -1.2292836348 0.8474319224 -0.2464931872
C -0.3424070577 0.9744694467 0.9674170531
H 2.3594132967 0.8490616266 0.1954086129
H 1.4514572312 -0.2140159924 -0.8799338043
H 2.5388105865 -0.9008522595 0.3256537
H 1.0974571114 -0.0595284704 2.1626130591
H -0.7916121062 -1.3561479216 -2.6538454148
H -2.1312895189 -2.0387028305 -1.5658682906
H 0.1764165351 -1.1081792609 1.1057035113
H -1.856152583 1.7024818324 -0.4873861563
H 0.1719468365 1.9406402148 0.9175932945
H -0.9891989429 1.0304145142 1.8495985742
