17
0
C 2.4170503422 0.2209603411 0.1792591257
C 1.0279531225 -0.3973453099 0.2594103605
C -0.0459173338 0.5928324527 -0.1679058696
N -1.39622912 -0.0039431519 -0.149425169
C -2.014487944 -0.0010627641 1.0243087381
C -1.8157630922 -0.5235093394 -1.2961194932
H 2.6547248792 0.5347006753 -0.8400839993
H 3.1795760751 -0.4936380676 0.4908511621
H 2.5005193755 1.0983204398 0.8252479122
H 0.9689568729 -1.2797541292 -0.382208659
H 0.8213317146 -0.7317026191 1.2782228752
H 0.1390212265 0.9486715135 -1.1810856879
H -0.0616657399 1.4602830479 0.4925137337
H -2.9789186543 -0.4748668337 1.1080379939
H -1.5307826225 0.4675925535 1.8631252567
H -1.1915017866 -0.4309624744 -2.1669360334
H -2.7691343152 -1.0255783344 -1.3238272466
