16
0
C 2.3866860963 -0.4826454821 0.8000823517
C 1.1695148022 -0.1046926732 -0.0057750149
C 0.1325776208 -1.1067195785 -0.3896802723
C -0.1520616697 -0.1203388229 0.7243422219
C -2.4626625099 0.835585456 -0.0957562008
O -1.0693599688 1.1621626397 -0.1520749013
H 3.1611650744 -0.9234253289 0.1666844223
H 2.8097895775 0.3894737881 1.3042568814
H 2.1267863587 -1.2134336628 1.5680520958
H 1.3305202866 0.6742897904 -0.7436167223
H -0.3290302908 -0.985606696 -1.3623534112
H 0.2176559629 -2.1405437377 -0.0712701741
H -2.625682426 0.0413579155 -0.8193506746
H -3.0503730181 1.7117743329 -0.3707380512
H -2.7172133783 0.4781250672 0.9022726543
H -0.8899075178 1.8529519921 0.4936387956
