12
0
C -1.7089873661 -0.4411837568 0.3247563364
N -0.4433867789 -0.1921779745 0.1195571211
C 0.6642616577 -0.9457793693 0.3024169119
C 1.7704230069 -0.1517589625 -0.094816195
N 1.4734358829 1.0345422073 -0.5117295657
C 0.0478342084 1.1223977419 -0.4152857873
H -0.4161599817 1.2876115697 -1.3891350405
H -2.43183978 0.3270380481 0.1021583388
H -2.0058865594 -1.4040537099 0.7092799815
H 0.6163314191 -1.9506410959 0.6841239497
H 2.8002902491 -0.4908559515 -0.0617162438
H -0.2645509582 1.9079032531 0.274734193
