13
0
N -1.6719327934 -0.11305401 -0.7557960902
C -0.4262043941 0.0256654532 -0.1593442087
O -0.2224717445 1.2231223639 0.6425604429
C 0.0709089643 -1.040508339 0.824628909
O 1.2551470844 -0.3521149116 1.2515875348
C 1.1355194459 0.8056623561 0.4689270068
N 0.8689433748 0.2887132861 -0.8814421087
H -1.856838863 0.5598634606 -1.4833032119
H -1.8742017749 -1.0523700991 -1.058361556
H 0.3260849962 -1.9863687321 0.3457837864
H -0.6161250926 -1.1837214936 1.6584291469
H 1.9113659329 1.5345973217 0.676444254
H 0.7009988639 1.0948523439 -1.4792409055
