14
0
C 2.4952927305 0.8041250399 0.1388090524
C 1.0962537223 0.4383280719 -0.1937790821
O 0.3176520222 0.1082182083 0.7934438966
C -0.9577194481 -0.1414212634 0.7667418192
C -1.6985863169 -0.014763988 -0.5019651308
O -3.0902154965 -0.1327910189 -0.3255871287
H 2.6409138622 1.8863915068 0.2448270791
H 3.1805093393 0.4615387077 -0.6393932818
H 2.7942045966 0.3392340448 1.0799381348
H 0.6788782553 0.4903204395 -1.1895150537
H -1.3696469547 -0.5142715405 1.690632064
H -1.4111986775 -0.7921002665 -1.2285753121
H -1.4223828984 0.947242043 -0.9829903986
H -3.3685617363 0.5411630154 0.2978473418
