19
0
C -3.0967729717 0.4910498788 0.4597426124
C -1.6385593362 0.9217497357 0.425774024
C -0.833762801 0.4901763145 -0.7162857865
C 0.6127073171 0.506666455 -0.4239429907
C 0.9533198742 -0.9834278621 -0.1810566895
C 2.3740817216 -1.1636556419 0.3387710948
O 3.3620322687 -0.7101415202 -0.5612468017
H -3.5601803857 0.6449697307 -0.5147730204
H -3.6607351388 1.0444455353 1.2129059222
H -3.1726868181 -0.5711955682 0.6983754045
H -1.1468136306 0.8314345628 1.4091748675
H -1.5766386763 2.0074775143 0.1855297287
H 0.26664226 -1.4149843812 0.555074664
H 1.1850538208 0.8422848952 -1.2926011481
H 0.9065657062 1.0885062735 0.4672380124
H 0.8254815402 -1.5395359982 -1.1104123667
H 2.4801495632 -0.6735169078 1.3154686786
H 2.5683389389 -2.2280051679 0.4835614371
H 3.3510947472 0.2480961516 -0.5803886425
