15
0
C -1.4936929877 0.4815794083 -1.1220492793
C -0.4244102671 0.1123127061 -0.1326442814
C -0.8371163439 -0.8355918768 0.9512853999
C 0.8239002594 0.5852241629 -0.2315529648
O 1.2713175356 1.4227924817 -1.2162380427
C 1.8643720032 0.2697115928 0.7022898581
C 2.742915706 0.0188126434 1.4773316207
H -2.4607787447 0.5494684704 -0.6200809104
H -1.5944532106 -0.2760590319 -1.9057214498
H -1.3296455939 1.4468053957 -1.607832704
H 0.5750366126 1.5437208159 -1.8654408326
H -1.6268439362 -0.394791055 1.5670602384
H -1.2453363356 -1.7548002906 0.5198857952
H -0.0068069946 -1.1038354592 1.601329458
H 3.5222822974 -0.2039569635 2.1668750948
