15
0
C -2.1122303606 -0.0361518944 -0.2271349218
C -0.7620199194 0.3800623087 0.314114179
O -0.7924582658 0.2460737105 1.7192760213
C 0.3730743362 -0.4625108983 -0.262532074
C 2.6250434311 0.1345017334 -0.3512418617
N 1.6172733174 -0.0756103534 0.3691425809
H -2.8978543577 0.5669320679 0.2281739131
H -2.1581618128 0.0969828347 -1.3098739188
H -2.308533848 -1.0842075668 0.0083280316
H -0.5715208371 1.4309469419 0.0466192933
H 0.1211787892 0.2987303096 2.020585577
H 0.4092741864 -0.3688865403 -1.3571872508
H 2.6119770839 0.0285753917 -1.4432482374
H 3.5621285931 0.4360478701 0.1128899595
H 0.1812956642 -1.5096529153 -0.006787291
