8
0
O 2.1316973097 0.3451921836 0.7686524161
C 0.9543183534 0.2443280476 0.5314385369
N -0.125666967 0.9734927027 0.9774402259
N -1.1514380438 0.4098005151 0.3870431242
N -0.9486416176 -0.5849202261 -0.389612136
N 0.3601079824 -0.7139720629 -0.3214828222
H 0.8208512638 -1.4388179677 -0.8435774847
H -2.0924592807 0.7432998077 0.5322011399
