16
0
C -1.4620843809 0.1248263601 1.1179800499
C -1.1676829917 0.010792367 -0.3513918127
N -0.8070181234 1.2316875403 -1.0691657386
C 0.1826254791 0.1622790827 -0.9369321105
C 1.4100446385 0.4785140954 -0.121059044
C 2.1384092508 -0.6195698191 0.5821392334
O 1.5575941926 -1.7634887334 0.3028015392
H -0.8153290414 0.8584719437 1.5978696298
H -2.4948066028 0.4416609733 1.2768885927
H -1.3225199874 -0.8384917161 1.6136962972
H -1.8153037952 -0.6840192511 -0.8805539394
H -1.2107415656 1.2484602471 -1.9965490285
H 0.3733661346 -0.4422779709 -1.8191062177
H 1.196595986 1.2360777838 0.6395199749
H 2.1760081384 0.9643469293 -0.7406592506
H 2.0396586683 -2.4608688322 0.7589078248
