14
0
O -1.2852186319 -1.2176801888 1.294983122
C -1.4510735432 -1.218971349 0.108519506
C 0.2389682993 1.7046173615 0.4903918973
O 1.4408577986 0.9848533955 0.7117492667
C 1.6369771249 -0.2572473485 0.2394339844
N 0.9598322212 -1.0651660506 -0.4440995414
C -0.3836812456 -0.9351906165 -0.9218382756
H -0.6234051748 1.1615696464 0.8765144966
H -2.453441728 -1.4163261512 -0.3266755216
H 0.1097795534 1.9401798229 -0.567497996
H 0.3462555146 2.6346147999 1.0442216705
H 2.6355790552 -0.5657493363 0.5437057682
H -0.6458589959 0.0377017158 -1.3607361016
H -0.5348032481 -1.6610497012 -1.7280272756
