12
0
N 1.9158766378 -0.2131013446 0.7666865538
C 0.8010932389 -0.4488249704 -0.1182594038
C -1.5066718641 -0.6658640515 -1.6112858856
O -1.568590308 0.1916090381 -0.6347456612
C -0.4260659741 0.3690731459 0.1981984751
N -0.5130764623 1.1916755313 1.1315288855
H 2.1728246433 0.765421132 0.7529735046
H 1.6532629132 -0.4168563898 1.72228497
H 1.0881922437 -0.2505628568 -1.1527653994
H -2.5182721066 -0.5805063549 -2.0627330396
H 0.5247997034 -1.5048157487 -0.1083812627
H -1.4303866653 1.6316008693 1.1578142634
