15
0
C -2.308860448 0.1039383656 0.5039381997
C -1.3832656623 -0.1047985177 -0.6352960805
O -0.0420755504 -0.4444946185 -0.4006378755
C 0.8061855374 0.6763448197 -0.2647569217
C 2.1779914836 0.1563826753 0.0973754093
O 2.1568167759 -0.5578362107 1.3119671987
C -2.4225163488 -1.0147130971 -0.1349746961
H 1.4389567707 -1.1937022493 1.2446088208
H -2.6225233374 0.7441369123 1.3098983194
H -1.4990605155 0.4425539671 -1.5728510683
H 0.4345540292 1.3370187495 0.5299953492
H 0.8491911315 1.249261014 -1.2016786562
H 2.5523932886 -0.4713279622 -0.7218672849
H 2.8675638884 0.9925341598 0.2275755971
H -2.8973230428 -1.9738400079 -0.248010311
