14
0
C -1.9218853368 0.4279928224 0.849737226
C -0.6875403646 0.1779948295 0.0477290094
C -0.5415525607 0.5050675842 -1.2352453117
C 2.444484556 0.2863854003 0.0381228785
C 1.4657519784 -0.7536446027 0.1855467672
O 0.2557357198 -0.4230801964 0.817706907
H -2.3100698004 -0.5114423468 1.2478180279
H -1.6863792366 1.074002711 1.6975215904
H -2.6905392731 0.9033332959 0.2441332952
H 0.3651935894 0.3436098167 -1.7993022327
H -1.3613040524 0.9836540906 -1.7502801951
H 3.278412015 -0.191480971 -0.5105964726
H 2.0644971584 -1.3233612251 0.9399652798
H 1.2940556075 -1.4518182086 -0.6472587693
