12
0
N 1.7766415319 -0.0496478684 -0.474748265
C 0.6101755513 -0.2152706129 0.2230173528
C -0.4404319691 0.8059076048 -0.0789183207
N -1.7163318994 0.6798990772 0.6888099999
C -1.7245283564 0.2994834838 -0.6059354064
O -2.3628329657 -0.1853335579 -1.4812814757
N 0.3416046429 -1.0927491517 1.1018411293
H 2.4434815805 -0.8012542872 -0.4673485454
H 1.751904149 0.4950124271 -1.3187680415
H -0.1005513894 1.8243014764 -0.2380132527
H -1.702120587 -0.0362333158 1.4137765261
H 1.0947857112 -1.7577102752 1.2465202991
