9
0
O 0.643761711 0.9971959884 0.9503464782
C 0.2785533963 0.6530213297 -0.3918252348
C 0.8686715077 -0.3146447651 0.5095285557
O -0.2977954884 -1.081260989 0.6492981892
C -0.9865458574 -0.1849726775 -0.265153984
H 1.8357031704 -0.770690278 0.6679539347
H 0.6530603013 1.252130748 -1.2080884596
H -1.259343337 -0.7189270855 -1.176172661
H -1.8509474038 0.296280729 0.1926151815
