17
0
C 1.6719361435 -1.6932562265 -1.2935879292
C 0.1345038483 1.707045847 0.9744664404
O -0.9160392008 2.1525990381 0.2485739673
C -1.7226910934 0.9959556294 -0.0685602078
C -1.2284637844 -0.1437824715 0.8373293704
C 0.0800437488 0.42783837 1.3282329525
O 1.0127694922 -0.4901272294 -1.6174954801
H 1.2021158869 -2.2074881911 -0.4460349224
H 2.7308669092 -1.5337192182 -1.0601175704
H 1.6088126198 -2.3441803608 -2.1653630656
H 0.8862013395 2.4528584483 1.1929801468
H -1.5602232024 0.7631124053 -1.1232516114
H -2.7658865598 1.2657716931 0.0872781195
H -1.9109861357 -0.3431603335 1.6687064411
H -1.113049775 -1.070950075 0.2739364419
H 0.8042745553 -0.0865384249 1.9404035933
H 1.0159212081 0.0733940999 -0.8363166862
