12
0
C -1.3411712153 -0.107494266 -0.0018783271
C 0.0701687778 0.3694393192 0.2622573644
N 0.592976644 1.3498842396 -0.7345922109
O -0.1569441789 1.614992288 -1.6216246269
C 1.1044436365 -0.7488763612 0.3304437353
H -1.3976326803 -0.6571201316 -0.9428789255
H -2.0414620628 0.7253623277 -0.0615656373
H -1.6591864172 -0.7715385353 0.8029818009
H 0.1212808868 0.9414939865 1.1972246573
H 1.0982293568 -1.3317282779 -0.5933004959
H 0.8785397215 -1.4210817543 1.1583783115
H 2.106538531 -0.3438568348 0.473697354
