13
0
C -1.8497580399 0.7751246859 -0.7100110376
C -0.7092651696 0.1610497008 -0.4732960792
O -0.471707758 -1.1959198196 -0.3475276045
C 0.7353166291 0.5267128449 -0.2003034345
O 1.0562309162 1.477690343 0.7511387293
C 0.8501745739 -0.9703937189 0.170649658
O 0.9201362103 -1.1063903441 1.5442113996
H -1.8654843932 1.8532770915 -0.7807427642
H -2.7721834049 0.2227333939 -0.8268250785
H 0.8367634015 -2.0317359421 1.7840623688
H 1.2785976883 0.7707196054 -1.113156545
H 0.7120402846 1.1777859592 1.5983029997
H 1.573853062 -1.6047147998 -0.346929612
