14
0
C 1.7055199899 -0.0721483799 0.2130875123
C 0.914352065 0.2512237648 -1.0137768821
C 0.0928988704 -0.5835449612 -1.6335404296
C -2.0107482858 0.8732886862 1.1133479327
C -1.6484728921 -0.3534161567 1.3838522643
O -1.3286268711 -1.4367845978 1.6292505158
H 1.4514541628 0.6107610181 1.028308985
H 1.5190238343 -1.0923851621 0.5500533267
H 2.7763087159 0.04174816 0.0259187101
H 1.0362223329 1.2561783793 -1.4129037333
H -0.4519176381 -0.2869108049 -2.5217385031
H -0.0606691715 -1.5970300899 -1.2766507944
H -1.6769834321 1.3139971417 0.1868853792
H -2.6348526806 1.4098100023 1.8103087164
