19
0
C 2.4466800855 -0.2721970649 -0.6693495282
C 1.1414109958 -0.7696827241 -0.1283167287
O 0.9113717686 1.3686028054 2.514931467
C 0.0053951339 -0.1049420093 -0.194458663
C -0.7026026402 1.0978765545 -0.6394006994
C -1.4299596026 -0.0444737662 0.0740293708
C -2.3945284575 -0.9230822657 -0.6829572581
H 2.8471251129 -0.9633757523 -1.4152767616
H 3.195038459 -0.1875403678 0.1230724174
H 2.3299036345 0.7070357481 -1.1340576966
H 1.1415461157 -1.7485732016 0.346583585
H 0.6812986675 0.7907957109 3.2434770474
H 0.9505521797 0.7919732682 1.7430168665
H -0.886634713 1.2225701036 -1.7015956159
H -0.5558420565 2.0214190062 -0.0906940335
H -1.7125730882 0.177660788 1.0997598835
H -2.0456260034 -1.0877183976 -1.7044326702
H -3.3853010331 -0.4663251359 -0.7302311959
H -2.4934905581 -1.8996332993 -0.2045917864
