14
0
C -1.4063105703 -1.0466381107 0.3096638545
C -0.0892858802 -0.3147590276 0.5266949391
C 0.944027817 -0.4493561103 -0.5879267014
C 1.2717112362 0.9867561653 -0.8869080123
O -1.0899374001 1.7645720545 1.3044899345
C -0.2896397006 1.202098493 0.6209451359
N 0.6277642682 1.8801422997 -0.2525214722
H -2.111833833 -0.7958098231 1.1014956456
H -1.2567943056 -2.1274983384 0.3066513905
H -1.856730435 -0.7622415908 -0.6441283533
H 0.3401048712 -0.6251828207 1.4832150271
H 1.8413608113 -1.0038563259 -0.3057466634
H 0.5426572937 -0.9333187328 -1.4835501763
H 2.0222028272 1.2700598677 -1.6220725483
