12
0
O 2.958173861 -0.5410603435 -0.3551180609
C 1.784278034 -0.3528909152 -0.5172004159
C 0.9336240505 0.4455159093 0.4027753674
C -0.0945312942 1.4065827811 -0.1903369883
N -0.4639635785 0.1465848633 0.2876171504
C -1.3253023565 -0.7446959736 0.5509067253
O -2.5998431654 -0.6349828773 0.1781177035
H 1.2509356957 -0.7168328763 -1.4238693729
H 1.3362563075 0.6441283932 1.3910191427
H -0.1114239463 1.4622737435 -1.2816828177
H -2.7469689891 0.2286641416 -0.2265450017
H -1.0770356187 -1.6341438463 1.1124045678
