19
0
C -2.9086610824 0.7483286008 0.3156135638
C -1.8774306979 0.1728741058 -0.6459620923
C -0.5161296614 -0.0495722439 0.0027201023
C 0.5094174858 -0.6349315306 -0.969579024
C 1.9022807394 -0.9359857254 -0.5760737569
C 2.3332796882 -0.4309626075 0.6881939598
C 3.613674523 -0.0306709235 0.7560522493
H -3.0671276992 0.0810802884 1.1664107362
H -2.5823697042 1.7139915551 0.7095400628
H -3.8731401326 0.8965332571 -0.1733355574
H -2.2434569578 -0.776608329 -1.0511551206
H -1.7614729922 0.8425519522 -1.5050370188
H -0.6350735608 -0.7205868992 0.8610771137
H -0.1467513409 0.9000704642 0.4042193814
H 0.1115735624 -1.5258751139 -1.473105831
H 0.6647199581 0.0516611212 -1.8201344241
H 1.6608427432 -0.2290214605 1.5245518545
H 4.2861539057 -0.2559092481 -0.0630156714
H 3.9895152234 0.5645837367 1.5819324724
