11
0
N -1.8233919519 -0.268640715 0.2344451781
C -0.4796814848 -0.2506604937 0.0475274388
N 0.2163868026 -1.3051035728 -0.1741789447
N 1.5486713852 -0.8069326341 -0.238638508
C 1.7811162811 0.4615463597 -0.087076112
C 0.3786884303 0.9821921269 0.1331719416
H -2.33375975 0.5866800233 0.1222722356
H -2.3110206553 -1.1163956428 0.0034811118
H 2.2492877003 -1.5091616311 -0.410518414
H 0.3025564972 1.4763110069 1.105173523
H 0.1264157455 1.7314811725 -0.6219514502
