11
0
N 1.8518093995 -0.1334052393 0.244643666
C 0.5731240893 -0.2970278719 -0.084074397
C -0.518101875 0.6286915117 0.3432156731
C -1.6987914215 -0.0267287158 -0.3009837359
C -1.4953199278 -1.1426481204 -1.0066711017
O 0.2003630776 -1.2543666285 -0.7843239643
H 2.533285596 -0.7985266986 -0.0767789224
H 2.1481875459 0.6391956489 0.8099961822
H -0.3147641395 1.6444189831 -0.0120978968
H -2.7001262793 0.3726440301 -0.2112301473
H -0.5685080651 0.673601101 1.436444644
