17
0
C 2.0118574221 -0.6663614999 0.4629944955
C 0.7974955133 -0.0067612024 -0.1196356999
C 0.8665860681 1.0772421048 -0.8822752545
C -1.9027584054 1.3018620372 0.6697011097
C -1.7709535948 0.0662225435 0.2141673058
C -0.5047484089 -0.7489323241 0.1303539059
O -0.6391304144 -1.7863306297 -0.8395614738
H 2.0529774303 -1.716066692 0.1617450489
H 2.9308652805 -0.1754886192 0.1438196473
H 1.9705043223 -0.6471571246 1.5558600294
H -1.0527711511 1.8914774879 0.9926954502
H -0.0180809454 1.5420353564 -1.2994442555
H 1.8207429072 1.5370607409 -1.1128048951
H -2.879383832 1.7651052697 0.7398446742
H -2.6536908143 -0.4928482811 -0.0857069336
H -0.4120804437 -1.2920238265 1.0773288083
H -0.5616609338 -1.3804643411 -1.7069269628
