13
0
C 0.2089556987 -0.7729807169 -0.4482033041
C -0.2897841764 0.2226725048 0.5526750507
O 0.2175543497 0.1410678426 1.8219244844
C -1.2443169026 1.1053931373 0.2901030404
O -1.9003134055 1.1145857488 -0.9150704852
C 1.705359739 -0.8898336192 -0.5219237534
O 2.4761921359 -0.3903182064 0.2574805345
H -2.2924443444 1.9766967236 -1.0522904934
H -0.1588391598 -1.782324169 -0.2132190367
H -0.1734020497 -0.5426417638 -1.4451531234
H 1.1777713374 0.0718876776 1.7363030432
H -1.5754659655 1.8019563229 1.0523669496
H 2.0889627433 -1.5068744824 -1.3583729067
