13
0
C -2.5861882253 -0.1772919173 -0.0783698113
C -1.285529272 0.0642185004 0.0344904566
C -0.4080728187 -0.0417338477 -1.1342400979
N 0.8502816747 0.1012094214 -1.1851974982
C 1.569518029 0.4832982655 -0.0299433508
N 2.5644560557 -0.3963305659 0.2546613749
O 1.3567251835 1.4915207654 0.6054844196
H -3.027600414 -0.4515880623 -1.0312646386
H -0.8438724671 0.3542227327 0.9799763522
H -3.2541067507 -0.1077993544 0.7708718944
H -0.9072303896 -0.2925664468 -2.0731849861
H 3.2263186581 -0.1383211241 0.9634358128
H 2.8165187365 -1.0915203669 -0.4224569275
