12
0
O -1.4578675029 1.460921542 0.6110510207
C -0.5850265282 0.8119223119 0.1383135038
C 0.2566398192 0.4827706959 -0.9914474137
C 0.4037808467 -0.2747824651 0.3767619821
C 1.6003323784 0.0098721279 1.2016532685
O 2.058138203 -0.7518734227 2.0063176759
H -2.7882534768 -1.0224927989 -0.7124954309
H -2.5113657602 -1.6532184117 -0.9975159774
H -0.1607633838 -0.072375926 -1.8222308517
H 1.057783042 1.1691584726 -1.247777783
H 0.0249166694 -1.2887080051 0.4373323131
H 2.0636166932 1.0049448792 1.0285696928
