10
0
C -1.6495255513 0.02910855 -0.0821439277
N -1.0915322551 -0.9484785518 0.8597980442
N 1.5584675515 1.8421608819 -0.0442381912
C 2.389783697 1.0830827041 0.1574880193
N 1.0345483846 -1.8246360502 0.432296785
N 0.0172727961 -1.3704305437 0.589051004
H -1.7551556518 -0.400956732 -1.08137867
H -1.0309716624 0.9269983649 -0.134955739
H -2.633862165 0.2949909913 0.2921839744
H 3.1542258565 0.3605483854 0.347304701
