12
0
O 1.7527124946 0.1845831426 1.1266816627
C 0.7172482837 0.1756768655 0.2562908329
C 0.6256253058 -0.7506462191 -0.88292704
C -0.5476011628 -0.6267988559 0.0851025649
C -1.2000455028 0.7184253483 -0.1438035863
O 0.0662686157 1.4099494022 -0.0009697142
H 0.5427067601 -0.3688544921 -1.8953274066
H 1.1934366365 -1.6649898074 -0.7674976207
H -0.9552557763 -1.4649623695 0.629263321
H 1.4543641283 0.5884237864 1.9471157056
H -1.8925715094 1.0197717588 0.6444335848
H -1.6437792734 0.8984994403 -1.1261323043
