9
0
N -2.3782122215 -0.6926048527 0.1085909629
C -1.4788611678 0.1623778069 0.0427990075
O 1.4803789943 -1.2423886011 -0.0017802057
C 1.8734032968 -0.1310844642 -0.0602466725
O 1.0695613868 0.9953143377 -0.0778785411
C -0.2439608422 0.8016400675 -0.0250105278
N -1.2588628114 1.5737527008 -0.0213318465
H -1.9903630393 -1.6307546884 0.133182815
H 2.9147254043 0.2030976934 -0.1096379917
