17
0
O 2.9571264443 -0.3738435768 1.4115385067
C 1.8957814588 -0.3871824044 0.5629668697
C -0.5988820598 -0.7540187101 -1.1021917198
C -1.6689002925 -0.6887043246 0.0052849324
C -1.4328049269 0.8320503447 0.0876486887
C -0.0747274402 0.6282011256 -0.6426483515
C 1.0988073785 0.6360647944 0.2879155434
H 3.0469141017 0.5031602054 1.7934747859
H 1.7763764616 -1.3674660106 0.118836187
H 0.0861261715 -1.6013707584 -1.1027134329
H -1.0461023297 -0.6826253903 -2.0945933544
H -1.3395435504 -1.1956182675 0.9127090618
H -2.6734646102 -1.0307487008 -0.2428299035
H -2.1393316521 1.3894241386 -0.5294078103
H -1.3954697341 1.2858936747 1.078823596
H 0.1090002722 1.3398475667 -1.4518812605
H 1.2954923074 1.5898452935 0.7785836612
