15
0
C -0.924046685 1.4410726406 -0.2867946465
C -0.4433455686 0.0138163655 -0.1898735189
C -1.3436693003 -0.9301506987 0.565652377
N 0.2131971051 -0.5878863646 -1.3757954984
C 0.98881388 -0.2393668777 -0.2320514347
C 2.1713651363 -0.2590079775 0.2723501988
N 3.3072725046 -0.133992722 0.7254719441
H -1.0381364663 1.873341335 0.7088114159
H -1.896751302 1.4797850112 -0.7837925802
H -0.2179735378 2.0592041424 -0.8427872795
H -2.340884445 -0.9379407665 0.1192736441
H -0.9411543538 -1.9413805724 0.536459148
H -1.4382453898 -0.617974011 1.6076174258
H 0.3376067624 0.1030252355 -2.1113480316
H 3.6494726602 -0.9627597398 1.2079968361
