17
0
C -2.4666191955 -1.0986804441 0.9183133054
C -1.2126558781 -0.6949762192 0.7952826386
O -0.1924116825 -1.5709374874 0.6239662906
C 1.0081282366 -1.1028106206 0.0818512978
C 1.0677385855 -0.4280827077 -1.2815233131
C 1.3813309115 0.3051322196 -0.0456897028
C 1.726213058 1.4388969894 0.5217826082
H -2.732811783 -2.1452343029 0.8475814275
H -3.2429956578 -0.3728500893 1.1109984933
H -1.3626307112 2.4351728758 -1.4839232114
H -0.9260004003 0.3510259237 0.8611801871
H 1.795367253 -1.811027227 0.3100269163
H 1.8563457826 -0.7136927479 -1.9681641319
H 0.1146261562 -0.1992634018 -1.7495012282
H -0.8169407922 2.2838559448 -0.9990576742
H 1.8004766012 1.52762371 1.5996296354
H 1.9459475158 2.3192635848 -0.0717455383
