13
0
C 1.4636698826 -0.1329333453 1.111131412
C 1.6567038398 0.8642602578 0.2584784779
C 0.3987218592 0.9155868389 -0.5569238152
C -0.7559383396 0.4407753071 0.2471944441
N -0.1429775177 -0.4749798949 -0.6838243889
C 0.0942675333 -0.6518061058 0.7850055677
H 2.1196140339 -0.5201092925 1.8752544139
H -3.1429380104 -1.4035379041 -1.7470870755
H 2.5123892202 1.5102757037 0.1382144198
H 0.2644481129 1.5505693322 -1.4221201975
H -1.8114090458 0.6771911466 0.2859582928
H -2.4114469276 -1.2857200264 -1.6471341865
H -0.3363596408 -1.541862017 1.2233956354
