19
0
C -2.3393768913 -0.9493004255 0.4065710831
C -0.9282375148 -1.1716200991 -0.1219707341
C 0.0164611278 0.0112707244 0.134370204
C 1.4485141812 -0.3278353197 -0.3016327839
C 2.4504509413 0.7820190791 -0.0107431393
C -0.4594410293 1.1693261352 -0.688742095
O -0.7738260271 2.1580774942 0.1119277595
H -2.9625576715 -1.8305266219 0.2454140672
H -2.3295837474 -0.7371346272 1.4785205186
H -2.8239067588 -0.1066089953 -0.0920470807
H -0.4918646537 -2.0580992683 0.3478546866
H -0.9590022924 -1.3662229128 -1.197895284
H 0.0115982393 0.2538461973 1.2078212706
H 1.442956566 -0.5532415885 -1.3719719443
H 1.7495197634 -1.24435224 0.2144301901
H 3.4632200726 0.4793063385 -0.2819969454
H 2.4518702732 1.0437173592 1.0503877408
H 2.2140824545 1.6873939011 -0.5747081633
H -1.0803810329 2.8962048697 -0.4263713503
