14
0
C 2.6954214145 0.0463728355 0.0956013294
N 1.3369987355 -0.432333056 -0.0779523691
C -0.7518291657 0.6659999692 0.3441360636
N -1.8095403269 1.1681776849 -0.0412310489
N -2.8510944737 0.2329156908 -0.341200409
C -2.646968672 -0.9349202441 -0.8456164042
C 0.3674980836 0.1308327763 0.7535540713
H 2.9965688966 -0.0985920899 1.1353777459
H 3.3644354278 -0.5449472649 -0.5294253423
H 2.8245005929 1.1079962574 -0.1511996984
H 1.0393093352 -0.4752841308 -1.0403889755
H -3.7430277275 0.6917226434 -0.1926237194
H -3.6459267383 -1.373492394 -1.0034250921
H 0.5493386178 0.0738503223 1.8223338486
