13
0
C 0.7008258677 0.7280485469 -0.0275871852
C -0.711240418 0.824502331 -0.5352686286
C -1.506702386 -0.1857792211 -0.8584234302
O 0.4243334872 -1.0604237967 1.6139865076
C 1.1225871719 -0.6493791365 0.4562912912
H 1.3813249855 1.0531266078 -0.8232487201
H 0.8329522704 1.4422987286 0.7910061464
H -1.0953176801 1.8353741744 -0.6478712724
H -0.5164322952 -0.964407317 1.4469541724
H -2.5093160009 -0.0106518928 -1.227887645
H -1.1946435677 -1.2227954478 -0.7852492224
H 2.1776464679 -0.6315415225 0.7333722372
H 1.0138170972 -1.3875150543 -0.3499562511
