11
0
N -1.5035905961 -0.6920751208 -0.048947946
C -0.1818890341 -0.0707220544 -0.0011194257
C 0.1303589618 1.1923808619 0.3136128166
O 1.4810450523 1.2559123749 0.2075251159
C 1.9335425967 -0.049771277 -0.1895880712
O 3.1073187913 -0.24159807 -0.3503379093
N 0.8521866883 -0.8634436437 -0.311494619
H -1.656451426 -1.0730455099 -0.9849554169
H -2.2448816139 -0.0334167904 0.1792420816
H -0.4236996589 2.0692549757 0.603065724
H -1.5279047612 -1.4785497464 0.6030376501
