13
0
N 2.6411639592 -0.8666160512 1.1268516222
C 1.7341236123 -0.2308586895 0.8293585223
C 0.580700085 0.5795443978 0.3996052542
C 0.3182396743 0.3808650728 -1.1212040846
C -0.7777302397 -0.594394949 -1.2899946709
C -1.2588159256 -0.8006411206 0.0830060818
N -0.6429815604 0.1244905782 1.0460782185
H 0.7983444858 1.6158651996 0.6601434221
H 1.1918260684 0.2052118636 -1.7485050478
H -0.16794737 1.283583088 -1.5316436832
H -1.252701223 0.9094157722 1.2257664891
H -0.8703590747 -1.8298575096 0.2409474027
H -2.3386294916 -0.8899226521 0.2022984735
