15
0
C -1.5532731693 1.275938114 0.3213390927
O -0.964244664 1.2221871933 -0.8853512655
C 0.265559754 1.0246161187 -1.1183849451
C 0.2532138258 -1.8402922633 -0.629150238
C 0.1430582135 -1.1914804469 0.522606262
C 1.0365486193 -0.0525855589 0.8945547126
O 1.1763412623 0.9569718672 -0.1630657892
H -2.5847679632 1.5774085483 0.2324100563
H -0.9396341703 1.6481973791 1.1290417137
H 0.5700802425 1.0178549119 -2.1533609165
H 1.0432125183 -1.6148614676 -1.3374874031
H -0.4413769659 -2.6241391174 -0.902431549
H -0.6498529221 -1.4272226852 1.2228983369
H 0.6771103876 0.4488947292 1.791157226
H 2.0635620313 -0.3775733223 1.0605527061
