9
0
N -2.3289402306 -0.788550257 0.3249593271
C -1.167710991 -1.2675271189 0.1048805736
O -0.5169484642 -2.2872380221 -0.0392374065
C 1.8741814683 1.5416662025 -0.2079053815
O 2.1763062943 2.0633687931 -1.2216910544
C -0.1611587919 -0.0273739696 -0.0172804281
N 0.7335158437 0.6965282479 -0.1128339513
H -3.0071385515 -1.5408782829 0.4250997273
H 2.3915154231 1.6219614068 0.7545405937
