8
0
N -0.9150512163 -0.4185929832 0.6663572569
C -1.0290376433 -0.2448111228 -0.6684899256
O -0.1671821537 0.2133550281 -1.3805152268
C 2.2668027068 0.6732012018 0.5905205995
O 3.0963949842 1.013527956 -0.0839304753
H -1.6646506832 -0.8100625668 1.2039312855
H -2.0097343191 -0.569267099 -1.0616611622
H -0.0538336753 -0.1612184141 1.120521648
