14
0
C -1.8417527534 0.038335612 0.7450959432
N -0.6777565795 -0.2445271038 0.2195458581
C 0.0663035072 -1.369340002 0.2365268966
C 1.2906491986 -1.1226504001 -0.4456068133
C 1.3501396405 0.1380769446 -0.9172149964
C 0.0782312134 0.832523422 -0.5508294595
O 0.2006189577 1.9878714537 0.2099355557
H -2.2394801605 1.0301468942 0.6090617973
H -2.3572603706 -0.7124233463 1.3235477502
H -0.5486077706 1.0899555218 -1.4063482285
H -0.2702720841 -2.2536573284 0.7500332975
H 2.0561294402 -1.8765388104 -0.5698259035
H 2.1154041497 0.5997865291 -1.5186692732
H 0.9445386114 1.8633736138 0.8077015757
