13
0
N -1.6935759119 1.7365066948 -0.6340073514
C -1.7899354555 1.5843874584 0.5121737369
O 0.0866131622 -1.0912023527 1.9542116016
C 0.1512607296 -1.1718313686 0.5555207648
C 1.1305419988 -0.1279558066 -0.0116332084
C 0.9147861213 0.0992155657 -1.4354491013
N 0.669009289 0.2957841422 -2.5393673023
H -1.5395993247 1.807450487 -1.6201588292
H -0.4823403873 -0.3523983302 2.188072247
H -0.8335114128 -1.0381795842 0.0980812247
H 0.497263231 -2.1754283023 0.3052236366
H 0.9718127141 0.8260326566 0.4969061819
H 2.1647152458 -0.4244002601 0.1668573992
