13
0
C -1.971570768 0.1365233344 -0.0962728353
C -0.5476033283 0.0235794289 0.3704324265
C 0.4877662341 0.0337784943 -0.7083913042
C 1.8711936985 -0.124220734 -0.3972295917
O 2.8292513992 -0.9683387949 -0.0940204853
N 1.6333907038 1.0814818741 -0.5834876108
N -0.1582798111 -0.062089753 1.5718527494
H -2.669077772 0.1150778977 0.7404683402
H -2.2145356968 -0.6823250778 -0.7779648123
H -2.1091677976 1.0676373225 -0.6515920118
H 0.1311558089 -0.1344676738 -1.7219923516
H 3.6341858767 -0.4696684796 0.0939913679
H -0.9437315475 -0.023456839 2.2176971192
