14
0
O -0.1735259292 1.4366943025 -1.8571692218
C -1.6434190761 -1.4065587464 1.2391788022
C -0.4476068079 -0.895148905 0.9972189594
C 0.8491569664 0.6292691549 -1.325286384
C 0.9712947468 0.7926087746 0.1760991856
O -0.2412766357 0.4332726659 0.8239724779
H -0.9738894062 1.2576683636 -1.3563140951
H -2.5274239655 -0.7832899068 1.2756272098
H -1.7456826009 -2.4660125948 1.4224862282
H 0.4497043379 -1.5109373703 0.9573730545
H 0.6829776864 -0.429594939 -1.5688610809
H 1.7821349623 0.9389324401 -1.8008445223
H 1.1421591178 1.8396815695 0.4276041638
H 1.8035226041 0.193588191 0.5652242226
