8
0
O 0.0686378218 -1.3856785251 0.2531607174
C -0.8597525363 -0.3475695044 -0.0577635223
C -0.3397161129 1.0803834328 0.328182126
O -0.5157392179 2.0050679665 1.0253474682
C 0.2329513781 0.4133463195 -0.8137504906
C 1.0134269251 -0.6272555437 -0.311508565
H -1.8660311115 -0.6191018797 -0.3430543059
H 2.0647518538 -0.8269082661 -0.1459764276
