14
0
C 1.390618619 -0.0634727096 -0.6297532588
C 0.2097689416 -0.9655581989 -0.8894684949
C -0.946493848 -0.2486005056 -0.1767194639
C -1.1210944615 -0.497632142 1.2955269305
N -0.6721530677 0.5983149983 1.772920365
C 1.0754229051 1.0435914084 0.0311252204
C -0.3770685217 1.0867116114 0.3842586973
H 0.0201519031 -1.0713836163 -1.9610838397
H 2.3931416574 -0.3219907021 -0.9506379711
H 0.3788151012 -1.9762229801 -0.5039093639
H -1.8676189469 -0.1973722519 -0.7565818784
H -1.4991310586 -1.3418267692 1.8720338337
H 1.7762683221 1.814383542 0.3243540584
H -0.886940545 2.0235253156 0.1546111652
