16
0
C 2.6262963631 -0.8520687564 -0.4759057929
C 1.4051156905 -0.0383074818 -0.1934420783
C 0.1749917271 -0.5329478883 -0.0950064109
C -1.0569574288 0.2084166656 0.2177179991
C -2.3876698733 -0.4173975079 -0.120194143
C -1.0104048856 1.391040262 0.7827920844
N -0.9685067052 2.4299472712 1.4228657419
H 3.3446718146 -0.7791714369 0.3453362725
H 2.3793747443 -1.9054236319 -0.6173289499
H 3.136288742 -0.4968014498 -1.3753487071
H 0.026828632 -1.5995739826 -0.2548920611
H -3.2189510122 0.2137510205 0.1916297885
H -2.4898951405 -1.3829140877 0.3819924879
H -2.4758137973 -0.5905025758 -1.1956409552
H 1.5561098978 1.0309869 -0.0581190206
H -0.9069767685 3.2803626797 0.8673147446
