10
0
O 2.7739676541 -0.3586964929 0.0580129003
C 0.7762914501 0.2246210563 -0.7165385048
N 1.8101686345 -0.3838398224 -0.9377597308
N -1.5645701559 -0.9874805783 0.3846608508
C -1.5767680719 0.1944720308 -0.0684240784
C -0.379011493 0.83639267 -0.6264329112
H 3.4683810577 -0.9123169814 -0.308616611
H -2.4855780842 -1.2575896503 0.7182789529
H -2.474931983 0.8208141021 -0.0815698813
H -0.4459120084 1.8599866661 -0.9754249866
