13
0
N 2.4503238306 -0.0465596432 0.1880148638
C 1.192378543 -0.063428074 0.1966999724
C 0.4269474975 -1.2008730217 0.7992492257
C -1.5706167566 -0.0326793816 -1.1930229032
C -0.9219251542 0.933301643 -0.3614698695
O 0.4854358226 0.9784033633 -0.3364687067
H 2.793037878 0.7979119579 -0.2653813601
H 1.1410392594 -1.9037961553 1.217669238
H -0.2441549437 -0.857437962 1.5897972875
H -2.650000564 0.1055726979 -0.9984147873
H -0.1718646715 -1.7081110026 0.0387243897
H -1.3424668329 1.1824362508 0.6221481104
H -1.2432859084 1.7717543277 -1.0370474609
