16
0
C -2.7939119449 -0.4995953092 0.9764415712
O -1.5283145085 0.170161951 0.958857831
C -0.9006784961 0.2111031072 -0.1757902162
C 0.356389524 1.0016445721 0.0095274553
C 1.4779587525 0.5413572719 -0.9164021476
C 1.9918941906 -0.8453830838 -0.5521665794
H -3.5555662911 0.2298439472 1.2497207638
H -2.7438360464 -1.2811975047 1.7335854648
H -2.9884836371 -0.9174754585 -0.0100916412
H 1.1024942615 0.5365104186 -1.9429664799
H 0.6794969954 1.039070902 1.0583804523
H 0.0503240673 2.0219807839 -0.2660326348
H 2.2980159119 1.2634668466 -0.8791626922
H 2.7964951325 -1.160251752 -1.2189404662
H 1.1898276646 -1.5843854979 -0.623216747
H 2.3775374239 -0.8670451945 0.4706760661
