11
0
C -1.8494140612 -0.4517309549 -0.1604449301
C -0.4277184714 -0.0974057205 -0.3527607309
O 0.325520078 -0.0369533 0.6673688876
C 1.6305286942 0.2654402766 0.721618129
C 2.2904408294 0.5567067238 -0.4658230618
N 2.7493584907 0.7834962349 -1.5055028687
H -2.4999258617 0.3567855717 -0.506507635
H -2.1077840765 -1.3403088708 -0.7432862104
H -2.0572404799 -0.645381639 0.8907547109
H 0.0089200458 0.1179186063 -1.3244063765
H 2.0523128127 0.2504460719 1.7071340856
