15
0
C 0.3318991431 0.5319258592 -1.4445810396
C 1.3077283296 0.2850595421 -0.333918492
C 0.5218893769 -0.7848574115 0.3206098273
O -0.7817577264 -0.5486366411 0.815386865
C -1.5269497535 0.3058770447 0.0700617707
C -1.0613683883 0.870489193 -1.0372607531
C 0.7965402743 -0.8581303698 -1.1318303597
H -0.4205751246 -0.1154233052 3.3674619663
H 0.7215408438 0.9873011719 -2.3474552242
H 2.2942920365 0.6734074565 -0.1472821296
H 1.0251001902 -1.4734589948 0.9863538267
H -0.2441608103 -0.0233340616 4.0865903846
H -2.5142446539 0.4563908865 0.485417202
H -1.6763294902 1.544777493 -1.6154674326
H 1.2748797526 -1.6074738629 -1.7389364121
