15
0
O -1.4929010293 0.9479202886 0.2549185319
C -1.6239781095 -0.3793354415 -0.1839574369
C -0.4850319618 -0.8821003137 -1.0239813033
C 0.9991048974 0.2453066278 2.3045327043
C 1.8892603245 0.9269479083 1.6246316179
O 2.6571688771 1.5369087609 1.0193885872
C 0.5374878413 -0.1529988339 -1.4417134388
H -0.7543148734 0.9847443499 0.8734830965
H -1.7697344331 -1.0659048788 0.6635775711
H -2.5471474708 -0.4225011655 -0.7696693587
H -0.5440181308 -1.9347919213 -1.2924803545
H 0.6334466141 0.6401446988 3.2399113901
H 0.7421349336 -0.7479910563 1.9682421719
H 0.6091733718 0.9034435208 -1.2098457116
H 1.3248461487 -0.5836155442 -2.0474370671
