12
0
C -1.3586428287 -0.2645016579 -0.6133305957
C 0.1481847148 -0.1270036286 -0.382398999
C 0.5204058639 1.2816943289 0.0193685292
O 1.3250302286 1.96225698 -0.5536586957
C 0.6213043042 -1.2182934647 0.5483884153
O 1.467741224 -0.7071861923 1.4048428952
H -1.6002248664 -1.295131378 -0.8711053556
H -1.9175042254 -0.0057907486 0.2888842334
H -1.6907418411 0.3910773239 -1.418974166
H 0.6796785574 -0.3599521987 -1.3156073465
H -0.01767691 1.6755312673 0.9084268428
H 1.7893247789 -1.4134686313 1.9761742426
