14
0
C 2.0235123103 0.2440201447 0.5494618912
C 0.5877741922 0.7185699815 0.4997580856
N -0.1271381728 -0.2263556261 -0.4573351134
C -1.5744650277 0.0540518785 -0.5240397168
C -2.2669400891 -0.5086703913 0.6317457467
N -2.831311885 -0.9738602952 1.5137978865
H 2.5615882354 0.4372477748 -0.3872753957
H 2.1694948019 -0.8303525663 0.7883273462
H 2.5506514839 0.8064245388 1.3214555016
H 0.1044301417 0.5125362318 1.4637819881
H 0.2695332862 -0.0473647073 -1.3759634848
H 0.0114366796 -1.2363392604 -0.278474372
H -2.0111163559 -0.365441422 -1.4318455128
H -1.6652926007 1.1421457184 -0.5183618503
