11
0
O 1.9096427198 -0.1641023623 0.0184507649
C 0.7184920018 -0.1221077934 -0.0358162643
N -0.1366693493 -1.1995730972 -0.132963693
C -1.5687902165 -0.8359302406 -0.1777522535
C -1.4147222302 0.6382323832 -0.0914380081
C -0.2676361383 1.0373301076 -0.0208317282
H 0.2230698274 -2.1403347658 -0.1654840615
H -2.1168966595 -1.2589859224 0.6658400803
H -2.0375200103 -1.1641887213 -1.1070081058
H 2.2856501827 3.005596096 0.5986832973
H 2.4075918725 2.2813493163 0.4622409721
