15
0
C 1.5648543834 -0.3110541141 0.0225188161
C 0.2566749027 0.2597503868 0.5527142484
C -0.1731200034 1.5267643493 -0.1672270713
O -0.998695398 1.0338558073 -1.2884072156
C -1.4299570981 -0.1705557499 -1.1346000997
C -0.9567091857 -0.6241688848 0.2285398774
O -0.720254485 -1.9994299499 0.3191040345
H 2.3933156 0.3650497037 0.2412166053
H 1.5223312967 -0.4599094405 -1.0591912338
H 1.7738033216 -1.2772612106 0.4788386586
H 0.3328885508 0.4403269385 1.6260835452
H 0.6346478469 2.1103687191 -0.6052859161
H -0.8124743367 2.1758894746 0.4329821124
H -1.7924700829 -0.3335005638 0.8942387607
H -1.1639363121 -2.4101804657 -0.4290661221
