13
0
C -1.4677974836 -0.5263391199 -0.1126944419
O -0.2755112619 -1.3231884819 -0.4486462417
C 0.857914851 -0.6955644541 -0.3646303014
C 0.5454864543 0.7293085337 -0.0389145892
N -0.2301693688 1.4061504968 -1.087975228
C -0.938829602 0.8618688774 0.0441445512
H -1.8870536638 -0.9360945911 0.8059168858
H -2.175008608 -0.6608825265 -0.9314244224
H 3.3683250581 -1.3715946867 1.9432289946
H 2.9941836206 -1.3688174277 1.2959967152
H 1.2606969548 1.339762691 0.4938211746
H -0.3165560323 0.8212404687 -1.9150244198
H -1.4302669182 1.5656662203 0.702477323
