12
0
C -1.8083765245 0.9392408981 -0.0554463982
C -1.1658595797 -0.3820545586 0.2321567731
O -0.6870367315 -1.1415945077 -0.9178186811
C 0.2206367501 -0.6395103026 -0.0331632381
C 1.4922109659 -0.5784052008 0.1540567138
C 2.7737933885 -0.5014536343 0.3723183574
H -1.2512043513 1.4763265636 -0.822289182
H -1.8282095991 1.5449341293 0.8524635002
H -2.8362268666 0.7980077132 -0.3940769618
H -1.6587887736 -1.0125011436 0.9688308644
H 3.2947833095 -1.2546733008 0.9545017566
H 3.3661670124 0.3163093441 -0.0252965043
