14
0
C 1.4098725665 1.1350286878 0.1562956289
C 0.7839728091 -0.2391016397 0.1431154388
O 0.6128990213 -0.7943468472 1.4675401413
C -0.8044774154 -0.9488379554 1.2845231465
C -0.7061035293 -0.3340362917 -0.0853344586
C -1.5384754716 0.0105703574 -1.0456735203
H 1.4624993194 1.5345801942 -0.8588833898
H 0.819991721 1.8166301714 0.7704010327
H 2.4221391879 1.0844561535 0.5606959242
H 1.3684687586 -0.9243427872 -0.4826546155
H -2.6062963426 -0.1493922001 -0.9538083695
H -1.3813635799 -0.3861921958 2.0247571241
H -1.1102084448 -1.9998459592 1.3083439084
H -1.1801246002 0.4655153119 -1.9617769912
