12
0
C -1.7814009024 0.7724739327 -0.4929388305
C -0.3776336463 0.4692852427 -0.1102984116
N 0.2180148604 -0.6243850488 -0.4927414074
C 1.4752951466 -1.0908546983 -0.2601930047
C 2.3405979637 -0.3207314548 0.5154402805
N 3.0093435137 0.3648209592 1.1655162084
H -1.8445043005 1.71185387 -1.0483729033
H -2.2070144436 -0.0147098298 -1.1196604023
H -2.418288461 0.8773436639 0.3894369444
H 0.2019392042 1.1473802432 0.5027610971
H -0.3427735594 -1.2439327456 -1.0645554426
H 1.7476086245 -2.0389411343 -0.685560128
