11
0
C -1.5037120745 -0.2437841835 0.1796930134
N -0.1550099938 0.3032247202 0.1108666964
N 2.9288493051 -2.4790583795 -1.2392377268
C 2.1495774521 -1.7167359627 -0.8903798772
O 1.0150850326 2.3640776197 0.5469428199
C 0.0512598804 1.4675918153 0.4392927399
O -0.4536814353 2.6127631415 0.8878621089
H -1.8025453887 -0.565267111 -0.8177085093
H -1.4936581778 -1.1207030384 0.8262428524
H -2.2408631773 0.4683707995 0.5577498032
H 1.4115745772 -1.0002154213 -0.5607369208
