15
0
C 1.7075984652 -0.30796719 0.1573782995
C 0.6760772742 0.2121363306 -0.8372169293
C -0.7408007836 0.3850194251 -0.284974986
N -0.7155246719 1.4913362181 0.7062143746
O -1.540368411 2.3322117391 0.5179333323
C -1.2825979825 -0.8382785336 0.4442687116
H 1.7477353349 0.316353188 1.0508429769
H 1.4873860114 -1.3302225798 0.4697429827
H 2.6999034475 -0.3120368426 -0.2957602202
H 1.0044203717 1.1754410557 -1.2387718539
H 0.6091939639 -0.4649781714 -1.6937044161
H -1.4230503926 0.6802692379 -1.0881374815
H -2.3305265643 -0.6926085172 0.7091680305
H -1.2094866131 -1.7185446589 -0.1966010005
H -0.7233104498 -1.0319727012 1.3605201793
