16
0
C 2.5393058281 -0.1944149018 -0.4660907738
N 1.1228117941 -0.3342611628 -0.2273793906
C 0.4544690439 -0.823328737 0.8324759375
C -1.8952375055 0.1897535967 0.7118990492
C -2.3154932948 1.3694322911 0.2814596786
C 0.0594097409 -0.075281752 -1.0264716348
C -0.8427691307 -0.6415188372 0.0607082271
H 3.0597324651 -0.1505098536 0.4888683848
H 2.7182327835 0.7190708659 -1.0300895661
H 2.904086918 -1.0513838024 -1.0332886374
H 0.7242899947 -0.6278188831 1.863671181
H -2.334110487 -0.2409543101 1.609241595
H -3.0812791685 1.9190910268 0.815838184
H -1.9023113698 1.8154375978 -0.6153585113
H 0.0779999253 -0.2731237923 -2.0944952737
H -1.2427245375 -1.6087553456 -0.2668204496
