11
0
C -1.8374585914 0.2008709688 0.0108617357
C -0.4682341483 -0.4336506419 -0.0253528095
C 0.6649067515 0.5084993682 -0.0972621403
C 1.8969514879 0.0447810463 -0.1752744232
N 3.0039777119 -0.3901925402 -0.3579589851
O -0.3145692448 -1.6335546149 0.0031160103
H -1.9155234508 0.8793598387 0.863492272
H -1.9993223352 0.7922992657 -0.8932534024
H -2.5973596746 -0.5731867617 0.0860023747
H 0.5124378986 1.579202897 -0.080936302
H 3.5877135953 -0.626197826 0.4361596698
