13
0
O 1.9943083015 1.0131094112 0.0644027708
C 0.8401250991 0.7251580527 0.1541144801
C 0.0102301878 0.015271102 1.2206993587
C -1.1627858379 -0.0208548542 0.2074345723
C -0.3567347899 0.8565242739 -0.7848460788
H 1.6287214097 -1.7975113139 -1.094175046
H 1.1043255003 -2.3020157489 -1.2561495242
H -0.1633826034 0.6525147682 2.090074605
H 0.4156707197 -0.9374934787 1.561966967
H -2.0962741497 0.412103901 0.5611704724
H -1.3638419662 -1.0202634275 -0.174892182
H -0.7030932794 1.8890606841 -0.8616348964
H -0.1966105916 0.4661356303 -1.7901624988
