15
0
C -3.1375957542 0.299774887 -0.8503388064
N -1.9722749219 0.093622963 -0.4191627778
C 0.8916311596 -0.774916547 0.4958959898
N 0.4161285852 -1.869747685 0.8162573091
C 1.3050939878 0.3499516793 -0.0388609337
O 0.5022839716 1.4520690616 -0.1439485765
C 2.7027003837 0.5460604549 -0.5250448133
H -3.8762568668 -0.4896543873 -1.0077487425
H -0.4279186276 1.1499955956 -0.1961315586
H -3.443361469 1.3182930461 -1.0870203923
H -1.7841212685 -0.8911214205 -0.2319586637
H 0.5088728225 -2.0652971856 1.813695966
H 3.2984736687 -0.3563397786 -0.3926189192
H 2.6908503765 0.8118798427 -1.5845283897
H 3.1783309525 1.364405474 0.0205793088
