15
0
C -1.3239437754 0.3774909792 0.8696799594
C -0.854127443 -0.8158368477 -1.2497654226
N -0.2309548744 -0.0501189665 -0.0318780921
C 0.7852647394 -0.8489945116 0.6124874775
C 1.9565513209 -0.2505508899 0.4121907149
N 1.8132522476 0.9332194182 -0.3401624868
C 0.5612174333 1.0397730586 -0.5506221929
H -2.0003448378 1.0111301327 0.3002359601
H -1.8566438548 -0.5216902913 1.1686231231
H -0.9144828419 0.9148546183 1.7264082771
H -1.2836588248 -0.0165276875 -1.8689150158
H 0.0138885033 -1.229305144 -1.777364108
H 0.4994076928 -1.7771666502 1.0770505767
H 2.9325294506 -0.585668935 0.7258893824
H 0.0553990645 1.8243177168 -1.0954861529
