16
0
C -1.4019546807 -1.4101637553 -0.7776028978
C -0.7528212935 -0.0754856192 -0.5345998068
O -1.2515205398 0.5729154668 0.6783677422
C 0.6763272257 -0.0353494415 0.0366250947
C 1.7492526447 0.7230619009 -0.7164432084
C 0.0141700472 0.6768039916 1.190579767
N 0.4211134791 1.2117209701 2.2431720314
H -0.958736015 -1.8825141039 -1.6570956415
H -2.4717017055 -1.2927092458 -0.9560909168
H -1.2633380154 -2.0706827032 0.0799525095
H -0.897401314 0.602049463 -1.3805400501
H -0.344081765 1.6217864019 2.7737746602
H 1.0275969197 -1.0259500577 0.3335607187
H 2.6249513143 0.8665267062 -0.0831409875
H 1.3919239433 1.708184842 -1.0223138866
H 2.057923755 0.1769581841 -1.610033128
