12
0
N 1.5864058866 -1.363881782 0.3261455347
C 1.7932614168 -0.3575861922 -0.1863310809
C 2.08473948 0.9056141798 -0.8522596428
C -1.762220716 -1.5362787621 0.2780255283
N -1.5939737957 -0.3151486193 0.5437647033
C -1.3063473318 0.8615273127 0.7081417077
N 1.2757722143 1.8637876942 -0.9587806228
H 3.0861761369 0.9755401879 -1.27535444
H -2.5579674662 -1.8277752225 -0.3951598541
H -1.0931353102 -2.2659333243 0.7157719296
H -1.7944374347 1.3447424643 1.5594662933
H 0.3745789199 1.6522960634 -0.5068030565
