13
0
O 1.7241611398 0.6104665591 0.5850488663
C 0.7400362887 0.3549960281 -0.3992826204
C 0.2189127896 -1.0874940672 -0.3363004564
C -1.0577510173 -0.9040039941 0.4411266072
N -1.4763879111 0.2858907954 0.5467641783
C -0.5451471085 1.1657711756 -0.1652347246
H 1.3262352309 0.5072773872 1.4533844503
H 1.2178856466 0.5889536255 -1.3495309764
H 0.9341487341 -1.7641451431 0.1338611669
H -0.0068186828 -1.4865395975 -1.3304595402
H -1.6166021672 -1.7275530572 0.8800597468
H -0.3528279958 2.0717344628 0.4122298337
H -1.013308947 1.4717598253 -1.1055165316
