16
0
C -1.0886861188 0.1138141546 0.2331659593
C -0.3041496515 1.0412583656 -0.6544187163
C 0.9553110554 1.429649515 -0.4957637488
C 1.8998940358 1.0402690659 0.597558619
C -0.9813306263 -2.3853557997 0.0823901118
C -1.335796735 -1.2150108279 -0.4237237111
H -0.5883668434 -0.0395384535 1.1902520554
H -2.0543118924 0.582423785 0.4551975363
H -0.8389256533 1.4117496605 -1.5256285806
H 1.3638357829 2.105714164 -1.2426228789
H 2.2256873182 1.9195508032 1.1595818403
H 1.4654007568 0.3309834251 1.3006065651
H 2.7989553876 0.5835109716 0.1762649374
H -0.4754752166 -2.4576431774 1.0398781544
H -1.1806749305 -3.3129862034 -0.4400464288
H -1.8351986688 -1.1842594484 -1.3898287146
