13
0
C 2.3413808782 0.4527941972 0.7563742073
N 1.3136423319 0.7702128585 0.1029904948
C 0.4664315298 1.1552393261 -0.7420331087
C -1.1578453351 -1.3079085529 0.3617046718
C -1.2742739843 0.1850175203 0.580060697
O -0.8265370976 0.924796319 -0.5705550965
H 2.722091073 1.1105194176 1.5326093254
H 2.8592815976 -0.4800856356 0.5492298877
H -0.1191628111 -1.6093623772 0.2233965697
H -1.5545274287 -1.8407726495 1.228156893
H -1.7257087224 -1.6100995371 -0.5188338799
H -2.3146257048 0.4812147128 0.7132059032
H -0.7073263263 0.5105364009 1.4565104354
