11
0
N 0.8213829191 -0.2166146499 1.4915090412
C 0.7690685917 0.8132032009 0.5806099362
C 0.9360165649 0.3242009546 -0.8662442109
O -0.1679023178 -0.569896149 -1.008823232
C -1.0707919862 -0.7601513739 0.0803414709
C -0.464136007 0.145193762 1.1628944228
N -0.4260146071 1.4650933289 0.7760555695
H 1.8669064794 -0.2237522404 -1.0024902411
H 0.840435412 1.1405145175 -1.5804211348
H -2.0677711507 -0.4301248086 -0.2075945697
H -1.0650078984 -1.8076135421 0.3777059479
