12
0
N -0.1193559713 1.6994703655 -0.3179285635
C 0.2273336154 0.5460821391 0.0594441132
C 1.537764488 -0.0751947078 0.4444168783
O 1.2399734854 -1.4412017462 0.6903471155
N -0.1303923476 -1.6700373576 0.5243435047
C -0.7117914512 -0.5811580065 0.1891838997
N -2.0481466345 -0.4210728426 -0.0045162811
H 1.9441212293 0.3789542612 1.3526963304
H 0.665861411 2.3443080947 -0.3659783391
H 2.2757894466 -0.0012778085 -0.3582422159
H -2.3022875768 0.405611822 -0.519129357
H -2.5925526942 -1.2471572135 -0.1774850853
