14
0
N 2.5649094035 0.0915355879 -0.1835934505
C 1.3357440906 -0.1196829822 -0.2227257946
O 0.8660430805 -1.438672291 0.0356838486
C -0.3683890545 -1.8047423778 0.2961030619
C -1.3660350804 -0.6866594969 0.3672143023
C -0.8646329244 0.7475437515 0.4264738753
C 0.2943669403 0.8909565267 -0.5518367069
H 3.0742958147 -0.7579112866 0.0549068278
H -0.054601518 0.7042594011 -1.5732807666
H -2.044685367 -0.9386116776 1.1852081512
H -1.9697701237 -0.8654121838 -0.5364888925
H -0.5213891327 0.9843533368 1.4371697727
H -1.6600783346 1.4552780929 0.1888145835
H 0.7608742057 1.873679599 -0.5319128122
