12
0
N 0.5358751652 1.5283581018 1.0751707246
C -0.3172408737 0.5790369398 0.6241370228
C -1.3869581401 0.3614716256 -0.3791533497
C -0.897910706 -0.5741930124 0.7021039519
O 1.1737924201 -2.7085141866 -0.9378045261
C 1.5124000213 -1.6353963128 -1.2014666774
O 1.8727296795 -0.5717147928 -1.4808793348
H 0.8200118673 2.2238965344 0.4085143041
H 1.2586185984 1.2322435719 1.7081799858
H -2.3418862171 0.879288038 -0.2648807879
H -1.1158395848 0.1861426538 -1.423038562
H -1.0546202302 -1.5194461604 1.1854362487
