10
0
O 0.4187978253 1.70925422 0.6624699247
C 0.1537443381 0.6877842952 -0.1522584606
C -1.0739154234 -0.134177636 0.0434300315
C 0.1032154383 -1.0473344642 -0.0120680238
O 0.5188389032 -1.1921588557 -1.3031526141
C 1.1918526842 0.0055577957 -0.8363925753
H -1.760917901 -0.2412769291 -0.7893606722
H -1.5413019261 0.0163705012 1.0104319419
H 0.5285640115 -1.62226099 0.7996094667
H 1.3628100499 1.902152063 0.566987981
