10
0
O 0.8482375866 0.7915319429 1.0144634797
C 1.2909489697 -0.0613671655 0.0505844209
C 0.3406368986 -0.5440995752 -0.7320992745
C -0.9425601854 0.1177508228 -0.2985997384
N -0.5902433037 0.7036521126 1.0052438698
H 2.3617472234 -0.2030612028 0.0364871149
H 0.4716644003 -1.2061855552 -1.5717180082
H -1.2457580651 0.9060439601 -0.9962588505
H -1.7864315634 -0.5624709436 -0.1693432224
H -0.7630869612 -0.0054843962 1.7141472088
