12
0
O 0.9831495709 1.8324547277 0.7620220424
C 0.5501138492 0.6545335895 0.2441641039
C -0.9193407238 0.4410997688 0.0401563339
C -0.9283143493 -1.0517834158 -0.3147432383
O 0.4119433797 -1.3990393043 -0.6945266681
C 1.2193215548 -0.4013295142 -0.2000303024
H -1.2924057159 1.0804151438 -0.7661694584
H -1.5032409937 0.657648121 0.9358741607
H -1.19974278 -1.6551112403 0.5574116512
H -1.5912793072 -1.3060318558 -1.1405049825
H 2.2822280845 -0.5840435011 -0.2599370012
H 1.9424364308 1.8495554807 0.7685283588
