11
0
O 1.0496326848 1.9173354401 0.913678752
C 0.3775236481 0.8127915938 1.092078847
C -0.3762345651 0.5277470128 -0.170780609
C -0.6647999072 -0.9643007456 -0.3419888231
C 0.5426092519 -1.7188223722 -0.6737356025
N 1.4966049086 -2.2928230618 -0.9493299449
H 1.5125035833 2.1288401783 1.732185948
H -1.332833785 1.0472271264 -0.0212550942
H 0.092778246 0.9608206335 -1.0607254346
H -1.0758923461 -1.3694220132 0.584470664
H -1.3945887192 -1.1322067922 -1.1357927028
