15
0
O -1.8346432504 -0.7424205623 1.4933719385
C -1.7097620099 0.5495980365 0.9497554346
C -1.1639199388 0.5480472647 -0.4639891573
O -1.0433107674 1.5421693793 -1.1232412749
C 2.2737893834 0.0344708306 -1.0926498639
C 1.9646681064 -0.2601759569 0.1347615414
C 1.6345126478 -0.5483985645 1.3589261269
H -2.6070226641 -1.1717832866 1.1227570634
H -0.9991298812 1.0978396992 1.5719144727
H -2.6519898431 1.1092275889 0.9611208023
H -0.8694187478 -0.4507524745 -0.8499669218
H 0.8383770425 -1.2531513625 1.5727579624
H 1.7746412791 0.8472981094 -1.6085093835
H 3.0332527172 -0.5240891871 -1.6266453956
H 2.1425979263 -0.0839145141 2.1960286545
