10
0
N -1.7384139677 1.2922333572 -0.4793565005
C -1.080745918 0.1508113952 -0.5260065909
O -0.1329338031 0.1932544713 0.425410084
C 0.688129839 -0.9542004752 0.4876636176
C 2.0606353863 -0.6307509007 0.0788453523
N 3.1390749018 -0.3963412649 -0.2299048976
H -1.5099414537 2.0375347622 0.1678356199
H -2.4912006413 1.4367929974 -1.1257260188
H 0.7052122089 -1.3153332361 1.5172453564
H 0.2866774479 -1.7294441065 -0.1673580225
