12
0
C -1.6093934797 -0.6731631904 -0.4233270263
C -0.2113993736 -0.2631333065 -0.189366991
O 0.8687563083 -0.9699461487 -0.7483121901
C 1.7546037873 -0.0143755683 -0.098473334
C 0.5271867183 0.6504922201 0.4364639929
O 0.396090859 1.7387920415 1.2246760232
H -2.2945959541 -0.0133678466 0.1103135907
H -1.8527688984 -0.6360620632 -1.4875968461
H -1.7756984567 -1.6952137678 -0.0755964489
H -0.5350872687 1.9183030405 1.3714268481
H 2.3374645341 0.5414495706 -0.8338290716
H 2.4024032242 -0.5128149812 0.6235694531
