12
0
N 2.541098516 0.7145530481 0.2773170647
C 1.2445385675 0.4581657693 0.11141898
C 0.7076756964 -0.9139143843 -0.2166713651
N -0.5473619693 -0.8700911489 -0.3164373155
C -0.8789352117 0.5557160032 -0.0514588707
O -1.9975007289 0.9517048434 -0.0641152722
N 0.2851162657 1.307299732 0.2034713608
H 3.2314443276 -0.0058595043 0.1848188177
H 2.8352268284 1.6503724798 0.4951443254
H 1.2954326718 -1.8177142064 -0.3483594688
H -4.7309091127 -1.3217439954 -0.202673757
H -4.090406851 -0.9394586366 -0.2002144992
