14
0
C 0.78121572 -0.9814221537 -0.7188440147
C 0.6543796019 0.7095789336 1.0777571199
O 1.0760087898 1.8292736058 1.1867757651
C -0.0166140377 0.2087494269 -0.1858493231
O -0.0291619099 1.2373935145 -1.1419013697
C -1.4512696537 -0.1944831496 0.1587880968
H 0.816102527 -1.8003269596 0.0030052678
H 1.8006893814 -0.6784893512 -0.9614806059
H 0.3077083113 -1.3460121567 -1.6309411253
H 0.7383904948 -0.0185540667 1.9080470477
H 0.3843516151 2.0080846767 -0.7301167216
H -1.9424701832 -0.5563326674 -0.7449516184
H -2.0085239598 0.6663502852 0.5305803658
H -1.4794336971 -0.9880269378 0.9087511157
