12
0
N 0.4329679361 -0.9874641476 -0.0108133542
C 1.4124787123 -0.596990278 -0.6286042185
C 2.5164024216 -0.2419691736 -1.2239760506
N -0.8565979565 -0.6491639261 -0.4553079659
C -1.7053189169 -0.0938833669 0.5767568008
C -1.1804906929 0.7688558004 -0.5119820733
H 3.0463953278 0.6472447862 -0.9113269381
H 2.9121597405 -0.8340860141 -2.03794177
H -1.2593331135 0.0288463987 1.5568428273
H -2.7319390632 -0.4384093897 0.5651026698
H -1.8106693715 1.0651612194 -1.340885315
H -0.3880640236 1.4639020913 -0.2568146124
