12
0
C 1.961185688 1.3441875023 -0.2938779012
C 1.7387031865 0.1675464205 0.4428073201
C 0.6603578369 -0.5647039607 0.0579583521
N -0.0866154295 -1.6445922255 0.2720317203
C -0.5608778511 -0.6622263403 -0.7384623534
C -1.6625752691 0.212946759 -0.4256564898
C -2.5971435098 0.9123115589 -0.1649692781
H 2.8338388777 1.8607325093 0.1463872833
H 2.3220882362 -0.2164162704 1.2826297276
H -0.5539415294 -1.8619202037 1.1413898026
H -0.5181357979 -1.035850847 -1.7542408666
H -3.4165704385 1.5529330977 0.0625876828
