10
0
O 1.7632281956 0.0685591398 0.0584879696
C 0.864705471 -0.9680407815 0.2620093923
C -1.0863390094 1.2913171785 -0.9332596536
O -1.0931940344 2.2669019373 -1.5539200134
C -1.1111842276 0.1805135664 -0.2210954105
O -0.2901566689 -0.8744462911 -0.5527154075
H 1.4521547869 0.8503098534 0.5210100714
H 1.3545570182 -1.888939286 -0.047624881
H 0.5561961183 -1.0279980348 1.3143422993
H -1.8447776495 0.0790817178 0.5697686335
