13
0
O -2.7144905291 0.9495344959 1.0420517433
C -1.8876859328 0.7839165173 0.1897196292
C -0.3995746767 0.7970456927 0.4544576273
N 0.3183507197 0.1571105089 -0.6245818622
C 1.6614886304 -0.290146679 -0.3226801272
C 0.559470147 -1.2668089812 -0.4753980394
H 0.1918842272 -1.7477545733 0.4269325293
H -2.1682355017 0.6225942561 -0.8712081528
H -0.2170324023 0.3528469742 1.4443672167
H -0.0939414364 1.8480146174 0.5084242022
H 2.0370578876 -0.1181419913 0.6820658293
H 2.3900296867 -0.1580905961 -1.1132927565
H 0.4730491803 -1.8560622416 -1.3798648394
