12
0
O 2.4581781444 -0.1578866067 -1.0263410822
C -0.5822218162 -1.0073564439 -0.1026808487
C -0.5278314666 -0.5061470186 1.1320604441
C -0.9525727793 0.8798256047 0.650924777
O -0.0090168167 1.299097864 -0.3490400174
C -1.0166916407 0.3333291697 -0.6917969802
H 1.7531206015 0.4468402035 -0.7612437303
H -0.2845855456 -1.9416763024 -0.5565449901
H -0.1736652655 -0.8770950043 2.0836548289
H 2.6074344355 -0.7064483633 -0.2556106203
H -1.5529514596 1.6423721124 1.1242814249
H -1.6788243911 0.5648297851 -1.5127062055
