19
0
C -2.439132758 -0.9700945369 0.9879129744
C -2.1855555365 0.0958798129 -0.0206985631
C -0.9860426789 0.5289065003 -0.4007842244
C 2.8837560016 0.2716496434 -0.3101685254
C 2.8106693245 0.3746820593 1.0071012252
C -0.8573989469 1.5862376058 -1.4085923763
O 0.1906502765 2.0304692236 -1.8060740964
H -2.9892739847 -1.7991648614 0.5352596529
H -1.5106645358 -1.3570847706 1.4065498521
H -3.0599300134 -0.58779137 1.802013242
H 0.8089149894 -2.8694592974 0.4298141082
H -3.0631224517 0.5497661929 -0.4797125617
H -0.0671877465 0.1220938313 0.0098632562
H 2.2906079047 0.9030369029 -0.9634105168
H 3.5406032455 -0.4508286391 -0.7824282779
H 3.4020546611 -0.2532434772 1.6643583535
H 1.1901262361 -2.2280966941 0.4253277434
H 2.1599851084 1.1010383968 1.4822609007
H -1.8195570974 1.974864477 -1.8050491661
