16
0
C -2.0626791354 -0.393740617 -0.1557175367
C -1.4008426282 0.8133610067 0.4679780224
N -0.281058392 0.3533190991 1.4574185172
C 0.040285225 0.9767453211 0.1664753626
C 0.8663469325 0.092790849 -0.7338037283
C 2.2073333567 -0.3544413185 -0.3696700775
O 1.0983718829 -1.2443248113 -0.3112406552
H -2.502355168 -0.0698127344 -1.1026264216
H -2.8932411918 -0.736164688 0.4648310687
H -1.420537527 -1.2626353995 -0.3730476241
H -0.1668726405 0.8806412702 2.3073283959
H -0.0001443951 -0.6220336623 1.5067009062
H 0.4635151244 1.978482769 0.2443611056
H 0.6295250531 0.1867767732 -1.7910286431
H 2.936560361 -0.581577752 -1.1406365822
H 2.6187371425 -0.0635731053 0.5937458897
