11
0
O -1.79863948 2.3973232749 0.3086825472
C -1.7614519632 1.9363168948 1.3330275993
C -0.4759131861 -1.0002390888 -0.5829336916
N 0.9886360456 -1.1592130169 -0.6037168773
C 1.2664758728 0.2261684964 -0.1862729817
C 0.3199735348 -0.590950383 0.5768668878
H -1.0141307257 -1.9403840442 -0.5469458589
H -0.9133442373 -0.2304178804 -1.2175489337
H 0.8806115926 1.0323857916 -0.8090561264
H 2.2687235568 0.3703311398 0.2006016321
H 0.3905849896 -1.0132411842 1.567176803
