11
0
C 3.0540111499 1.0544466937 0.3400994541
C 1.8478930881 0.728602369 0.2403460653
C 0.5573160648 0.3448691818 0.1172364323
C 0.0028451891 -0.9608204613 -0.377431434
C -1.4641294048 -0.7097668397 -0.2496527983
N -1.7318573563 0.4504459155 0.2046576671
N -0.5179471573 1.0752677507 0.421321025
H 0.3209230193 -1.1597945596 -1.4036963889
H 0.3558511931 -1.7953190927 0.2331173327
H -2.261985467 -1.3954466032 -0.497267757
H -0.5063523189 2.0126106459 0.7860574018
