11
0
O 2.1433010984 -0.2055741256 -0.6369001955
C 0.8201140484 -0.431750541 -0.5825915017
O 0.1115873965 -1.5194880726 -0.1629329474
C -1.0551730679 -0.9647960533 0.2955443528
C -1.1396565192 0.3619805713 0.1440050819
C 0.1046997478 0.8492325257 -0.51249521
C 1.3591609213 0.6070369637 0.3338052804
H -1.7616289997 -1.6738767718 0.6970190186
H -1.9942186665 0.9624055796 0.410560687
H 0.0891795128 1.6330126439 -1.2637584726
H 1.387142528 0.28475028 1.3638339065
