11
0
N 1.794780454 -0.5043978237 -0.1534609603
C 0.4430939759 -0.161533751 -0.0465598476
C -0.2546178872 0.9605054341 -0.3199805061
N -1.5853144599 0.6343278393 -0.0788289363
C -1.7749623148 -0.6327821435 0.349799125
N -0.4958272144 -1.0955726535 0.3507976095
H 2.2425267034 -0.6276721748 0.7438387581
H 2.3155126527 0.1620558087 -0.7009645755
H 0.0744353995 1.9306658354 -0.6498403652
H -2.3523768416 1.2665148386 -0.2084380297
H -0.2657994677 -2.0463452095 0.5764217279
