9
0
N -0.8665799451 0.9545600579 1.86927564
C -0.7659166178 0.6156720774 0.6603669196
N 0.2954312891 -0.1796830564 0.2441009836
C 0.4302260264 -0.5538140749 -1.0294343777
O 1.5309871978 -1.2985111354 -1.1125711835
H -1.6881593278 1.5304192312 2.0154420399
H -1.4371252722 0.8736082077 -0.1593716108
H 0.9581907992 -0.455313634 0.9650409407
H 1.6272558505 -1.5664006733 -2.0283313517
