16
0
C -1.3952845719 1.0803897065 1.0786592043
C -1.2535553173 -1.0703334153 -0.3594592726
N -1.269855603 0.4602890246 -0.2334587861
C -0.058632753 -0.2528013286 -0.6914043749
C 1.1502630877 -0.2543264691 0.2098654516
C 2.3451873034 -0.9070823909 -0.4340934625
O 2.4295345406 -1.200436126 -1.5941698691
H -0.8538342926 2.0283573344 1.119529134
H -2.4520486669 1.2508653613 1.283149025
H -1.0125803188 0.3859844377 1.8208473578
H -1.8199462794 -1.298194597 -1.2674204452
H -1.6958742236 1.0078528549 -0.9688833674
H 0.1907380261 0.0222172049 -1.7161646416
H 0.9374895673 -0.7893871365 1.1394889934
H 1.4777506595 0.7573373421 0.4886162966
H 3.1932968416 -1.0967348031 0.2560997567
