16
0
C 0.2578315444 1.1786249949 -0.5355102832
C 1.6492930302 0.7708883505 -0.9425437452
N 1.938269823 -0.4544629358 -0.825109901
C 0.7741174457 -1.1665258565 -0.2997549432
C -0.2252660699 -0.0970702919 0.1350884596
C -0.765197783 -0.0762780032 1.5321251401
C -1.6674808402 -0.3988384535 0.3739924962
H -0.3292187356 1.4398815834 -1.4234027124
H 0.2537524422 2.05138136 0.1217046215
H 2.3788280679 1.473496952 -1.3401882351
H 1.0801283364 -1.8232052175 0.5179850754
H 0.3798920769 -1.806553042 -1.0963524805
H -0.8850769874 0.8846897291 2.0175516296
H -0.4836276845 -0.8832510634 2.1976810435
H -1.9971478698 -1.4243660199 0.2581581021
H -2.4010237965 0.3417409137 0.0800597326
