10
0
N 1.6799145039 -0.6367862677 -0.3500023006
C 0.4304659158 -0.6555958837 0.1110289392
N -0.2394609698 -0.7713131322 1.1780179501
C -0.9791038012 -0.5375969343 -0.0957788842
N -1.6595966731 0.7226745732 -0.3395412874
N -1.1793421653 1.7001437573 0.2189648975
N -0.8037744721 2.6462934971 0.6885454686
H 2.4510671561 -0.6472131435 0.2941364599
H 1.8581236934 -0.4394809536 -1.315508168
H -1.5802951876 -1.3412295127 -0.5044800752
