15
0
C -1.2782285364 0.4917535652 -1.3496952209
C -0.4355693945 -0.4627949311 -0.4979582801
C -1.273981788 -1.1418538051 0.5899073797
C 0.6913638005 0.2511022368 0.1027244648
O 2.5885512164 2.4533654269 2.0206930947
C 1.5861120232 0.8634653829 0.6219594644
C 2.7011632106 1.5636744475 1.2191862026
H -1.704160002 1.2824999739 -0.7298489599
H -2.0966427761 -0.0547944048 -1.8213198558
H -0.6795744676 0.9583891431 -2.1322161522
H -0.0224255838 -1.2375131166 -1.1519294071
H -1.6988266853 -0.3972840236 1.2652616661
H -2.0928534732 -1.7002487227 0.1331078582
H -0.6715940776 -1.8317176207 1.1811354384
H 3.6952325338 1.2184974481 0.8818233068
