13
0
C 1.7170553823 0.0981309078 -0.4531756501
C 0.6266648499 0.4863881516 0.4983787128
O 0.7738975834 1.1783656375 1.4521779677
N -0.7280732441 -0.0241095655 0.1718235557
C -0.7996617411 -1.2729792245 -0.2900336585
C -1.6968315968 0.8602609715 0.3553102596
H 2.5527900008 0.7749570333 -0.2951105942
H 2.0497401423 -0.9199973946 -0.2458975671
H 1.3685980087 0.133431304 -1.4838851484
H -1.7672993846 -1.6718597702 -0.545021304
H 0.086560757 -1.8788261986 -0.3025980398
H -1.4394310866 1.8240084649 0.7539081763
H -2.7124426711 0.5604526829 0.15407929
