13
0
O 1.8964383087 -1.6977778227 -0.3228512812
C 1.611316016 -0.5277309565 -0.3317841385
C 0.2458247769 -0.0070061787 -0.2199643197
C -0.718961054 -0.1965017423 0.9508656705
C -0.9857868776 -0.8753286001 -0.3269054853
C -0.1766379999 1.4481337295 -0.1199695706
O -1.1186477824 1.1579471244 0.9356092918
H 2.4030144589 0.2464925438 -0.4086344766
H -0.5591520491 -0.6833354971 1.904039221
H 0.6165027617 2.1024763248 0.2511059961
H -1.8087549034 -0.5384866941 -0.9464727665
H -0.7585437597 -1.9337621597 -0.3527453513
H -0.6567178959 1.8944079285 -0.9940587895
