14
0
C -1.5808914295 0.309323218 0.1399822462
C -0.4037526139 -0.495797276 -0.3500706031
N 0.0608905034 -0.2475117358 -1.6768407164
O -0.4547746275 -1.8665659735 0.0108675009
C 0.5608549722 -1.0650076167 0.5879605505
C 1.7516417583 2.1554818049 0.273686982
O 1.9856479495 2.3699514032 1.3505177761
H -1.8457858797 0.0365232519 1.1612579471
H -1.3577787093 1.3778045784 0.1037357968
H -2.4480855881 0.1232327756 -0.4987744043
H -0.705871493 -0.1003786477 -2.318903404
H 0.4583724997 -0.8733809001 1.6535687572
H 1.5676949745 -1.2762238287 0.2381894127
H 0.6669316834 0.5606419466 -1.7052128417
