11
0
C 2.7317145585 -0.1656452056 -0.0387441959
C 1.5638575313 0.0559077718 0.1113964351
C 0.1535755139 0.3128776808 0.2912934208
C -0.7765300448 -0.5297970355 -0.5122232383
C -2.2018301518 -0.4206004542 -0.2893625088
N -1.8555054621 0.200433863 -1.3057641402
N -0.3128909148 1.1934061491 1.0778721615
H 3.771383748 -0.3549421024 -0.1713526901
H -0.3461540437 -1.4035896612 -0.9890604687
H -3.0798768448 -0.62697314 0.304235991
H 0.43294811 1.7053091344 1.5418522334
