13
0
O 1.9928399194 -1.1222866094 -0.5449334413
C 1.481936791 -0.1536231079 -1.05142519
C 0.1058996142 0.2525521814 -0.7779099684
C -0.423614119 -0.2236023702 1.6505467141
C -0.7611713651 -0.5202138445 0.1928616087
C -0.3370084115 1.3284930614 -1.4058271554
O -0.7149404103 2.2620630237 -1.9610126036
H 2.0440725811 0.4797134955 -1.7644572824
H -1.0373003101 -0.8333080282 2.3159444409
H 0.6236509259 -0.4481360282 1.8544169462
H -1.814778311 -0.3135923736 -0.0050693277
H -0.5979728795 -1.5792594373 -0.0174025409
H -0.603220025 0.8263240374 1.8901058002
