14
0
C -1.1425885219 0.5871677729 1.169034585
N -0.7683127723 -0.2881592381 -1.0741788565
C 0.0177583279 -1.2761864628 -1.2324049081
C 1.2254187445 -1.2319807533 -0.3788824956
C 1.1230798607 -0.1176722997 0.3368478104
C -0.190451719 0.5572092249 -0.0165451836
O -0.0355450912 1.8821673855 -0.4577952554
H -2.0970562729 0.9930600765 0.8373191364
H -0.7340675276 1.2248818982 1.9531633135
H -1.2954618964 -0.4175803305 1.5634269862
H -0.204368849 -2.0628382606 -1.9482034539
H 2.0170378966 -1.967569121 -0.3674708089
H 1.8126402526 0.2722638243 1.0722196047
H 0.3837465681 1.8611032839 -1.321843474
