12
0
N 1.8572281867 -0.3675639335 0.3783020053
C 1.0152297527 -0.8006145991 -0.6170635867
C -0.1059613119 -1.5109528869 -0.4594989776
O -2.9648477201 2.8316159574 0.4662400734
C -2.0647072129 2.0966006295 0.4961077962
N -1.0824337262 1.4100620115 0.6208358885
H 2.4138807554 0.4439939169 0.1795456856
H 1.5008498437 -0.3901774106 1.3192803098
H 1.3495140896 -0.5408158823 -1.6168727651
H -0.6504893286 -1.8614253138 -1.3239184216
H -0.457498264 -1.8188669014 0.5193422011
H -0.8591530642 0.5689674122 0.0958107913
