15
0
O 2.1073274614 0.1265206696 -0.6420487502
C 1.252629643 0.3313341571 0.4388356033
C 0.1097272225 1.3210135647 0.1425639163
C -0.8500567277 0.2102883609 -0.2999252107
O -2.1259741633 0.255145103 0.2153898706
C 0.0852821686 -1.6877594888 -0.5059407038
C 0.2135620779 -0.7969816636 0.5648073582
H 1.7591217618 -0.6593344027 -1.1060669482
H 1.8328694311 0.5448929065 1.3366337404
H -0.2795861345 1.7682584615 1.0577746587
H 0.3158492786 2.0897864205 -0.6004604958
H -2.7312784537 -0.2085142322 -0.3654535932
H -0.8030874025 -2.3166402718 -0.340741123
H -0.8279959679 0.0522881119 -1.377833003
H -0.2449671952 -0.9165676964 1.5464166806
