15
0
C 1.6086807991 -0.4972891485 -0.0239120815
C 0.4165699546 0.1719938264 0.6241507644
C -0.3051394466 1.2932178959 -0.109522482
O -0.4206932356 0.8277752589 -1.4708417725
C -1.6791996918 0.6375813124 -0.0500814435
C -0.9778062954 -0.5375234346 0.6244901314
O -1.1338315518 -1.8339048972 0.1438700958
H 2.4671333816 0.1771751567 -0.057533529
H 1.3878526281 -0.8144591498 -1.0423172497
H 1.8944962439 -1.3819174886 0.5469440079
H 0.6660707298 0.4852309502 1.6398871162
H -0.0671604752 2.3518957587 -0.0291239373
H -1.0992511736 1.3597248953 -1.9073935865
H -1.3883458173 -0.5081287417 1.6441983447
H -1.2043470499 -1.7885641939 -0.8118973784
