14
0
O 2.5325428185 0.7773546456 -0.6447952891
C 1.6930016488 1.6744469072 -0.5412335456
C 0.3440678358 1.4624282361 -0.2064931152
C 0.4632310398 -1.0035076467 0.0157750322
C -0.8059657849 -1.7217059148 0.3679979836
C -1.415115355 -0.2981860427 0.3619695208
N -0.0719771284 0.1932032315 0.0162642128
H 1.976211395 2.7295948046 -0.7168777243
H -0.3977270207 2.2395742187 -0.1119345482
H 1.4934047884 -1.239568288 -0.1930389966
H -0.8204423547 -2.2254983045 1.3357377817
H -1.2030554014 -2.3953467538 -0.3930411778
H -1.7601259223 0.0863521197 1.3206883063
H -2.1424125589 -0.086567213 -0.4205084405
