15
0
C -1.7786500452 -0.4018164108 -0.9122631095
C -0.7978082446 -0.15494351 0.2031721262
C -1.3517830356 0.3932925852 1.4916382156
C 0.470920982 -0.3997705126 0.0597499868
C 1.747742843 -0.6548259843 -0.0806497291
C 2.6935811203 0.3018226722 -0.5654399428
C 3.5097115918 1.0825185046 -0.9678828203
H -2.2861758711 0.5283262719 -1.1808876117
H -2.545934247 -1.1114330182 -0.5915765492
H -1.2886653794 -0.7979567258 -1.7997910974
H -2.0958438007 -0.29306347 1.9045604268
H -0.5703618328 0.5480772329 2.2333360594
H -1.8535707065 1.3475811704 1.3110775122
H 2.1300635543 -1.6379101785 0.1798055471
H 4.2284720714 1.7819973728 -1.323135014
