10
0
C 0.0586676333 1.0573211887 0.0264410786
C 1.3112513559 0.8608221207 -0.0460400225
N 2.2810086504 0.0776723429 -0.1341374337
C 1.6905766239 -1.1672362264 -0.1685648881
N 0.3935143601 -1.3497489496 -0.1131812434
C -0.4178218741 -0.2834774371 -0.0182055178
H -2.7030235448 1.81437147 0.2983333296
H -3.4289444808 1.6653414818 0.3891401587
H 2.3579664637 -2.0151922067 -0.2452726587
H -1.4812871876 -0.5000997843 0.0250551973
