13
0
C -2.1223007379 0.0853637807 -0.1765884421
O -1.1474856646 -0.7264807314 0.4476639266
C 0.1167184776 -0.3383892507 0.2460132157
C 0.6910908057 0.6796646906 -0.4304627526
N 2.0606189598 0.4948435914 -0.2307228403
C 2.3768054727 -0.5733714246 0.5277409484
N 1.1370547532 -1.0690123462 0.8072198613
H -2.0704448786 1.1112753003 0.2008432721
H -3.0903828245 -0.3448327687 0.0682274361
H -1.9849844441 0.0884073806 -1.2623265911
H 0.2708263963 1.4824940876 -1.008341327
H 2.7654162686 1.0963281642 -0.6125092641
H 0.9871654156 -1.8878394738 1.3677785569
