9
0
N -0.7395065636 -1.1850877708 -0.4404426158
C -0.6793622704 0.1449544932 0.0703572578
C 0.6100684744 0.8473465957 0.0885763755
N 1.7062879535 0.153124274 0.0378342056
N 2.6418518711 -0.4606596351 -0.0186461595
O -0.9388298424 -0.8888327399 0.9806783956
H -1.67766253 -1.3556574232 -0.8029958416
H -1.5224754561 0.8109624765 -0.1021802353
H 0.7167313636 1.9085727296 0.2378286179
