13
0
O -1.9530777486 -0.4727539649 0.3983863383
C -0.8912329563 -0.6965562639 -0.4440292881
C 0.1049058639 0.4684910748 -0.8138986975
C -0.124130777 1.7511402724 -0.1301747032
O -0.557283973 1.8511805805 0.9955959665
C 0.4800306533 -0.7193076377 -0.0003131825
C 1.4451159708 -1.2563956332 0.7073788623
H -1.6794619973 0.1858920328 1.0546152805
H 1.2899049441 -2.1879253645 1.2388253335
H -1.1774957396 -1.3159323305 -1.2861520424
H 0.4424453734 0.5255860264 -1.8425440458
H 0.0910827073 2.6602751921 -0.7220320777
H 2.417712679 -0.785020984 0.784583256
