15
0
C -1.3606824068 0.9545190506 1.0045194515
C 0.216713996 -0.84612112 -1.6014926824
C 1.6351499104 -0.6415596023 -1.062400055
C 1.871112436 0.6759016377 -0.4770444248
N 2.0184544559 1.7240845601 -0.0327211526
C -0.7165345225 -0.392747175 0.7255834014
N -0.7222721289 -0.7100407348 -0.7115615062
H -1.4015359732 1.1346714463 2.0794092967
H -0.7882577859 1.7590029898 0.5432042205
H -2.3826140553 0.987679198 0.6203974212
H 2.3416218166 -0.7742555506 -1.8808365922
H 1.8683500676 -1.4073608534 -0.3131897181
H -1.2601475658 -1.193354311 1.2335659079
H 0.3064371757 -0.4127446966 1.0943124297
H -1.6571994199 -0.8505248388 -1.0719949976
