16
0
C 2.9998538057 0.5697684802 2.5225138883
C 2.0234641621 0.4456464314 1.448336476
C 1.2123348446 0.343702886 0.568409609
C 0.2732290494 0.2236712068 -0.4999932037
C -1.043734118 0.1155329777 -0.3358382606
C -2.0225900243 -0.0320000888 -1.4630014086
N -2.8007020139 -1.2668646618 -1.4384314726
H 2.9168793251 1.541403642 3.0126949784
H 4.0154219952 0.4706307715 2.1362616309
H 2.8453873456 -0.2034405056 3.2769849119
H -2.1836254381 -2.0674335936 -1.3896746585
H 0.6861808183 0.2266977433 -1.5059742809
H -1.45218376 0.1082763949 0.6724009459
H -1.4923102392 0.0240390646 -2.4173010624
H -2.7275173193 0.804587895 -1.451028763
H -3.3948914333 -1.3012266437 -0.62048833
