11
0
N 1.8027136974 -0.3084770684 -0.7512799525
C 0.5726421679 -0.0003603169 -0.1202056963
C 0.4093004816 1.1206393504 0.7543449475
N 0.4651056938 0.0260119279 1.3765414069
C -2.7268350398 -0.2240576106 -0.0631516077
N -1.6144987539 -0.4519735543 -0.403996724
N -0.499387591 -0.5810426853 -0.8909516985
H 2.5805545506 -0.2090207782 -0.1162689107
H 1.7832912754 -1.2434400622 -1.1340932503
H 0.329312955 2.1758797307 0.9911611989
H -3.3767304369 -0.7893319333 0.5845542866
