14
0
C -1.1219846519 -1.2717006852 -0.0327042984
C -1.3076485493 0.2116108313 -0.137308024
C -0.5959652415 1.2472750953 0.2956896112
O 0.5726378229 1.3621408065 0.9842182669
C 1.8726928294 0.2041106016 -1.7940399021
O 1.5068170848 0.399337006 -2.8372781266
N 1.11984522 0.1397659447 1.450003239
H -0.2397185206 -1.5423850033 0.5365799753
H -1.992276656 -1.7251723263 0.4492162628
H -1.0529368242 -1.7138324221 -1.0312643364
H -2.1971882581 0.526722271 -0.6749944837
H -0.9337329204 2.2551327844 0.0808596139
H 1.457918818 0.3799229717 2.3752056329
H 1.9385568468 -0.0086918756 0.865347569
