10
0
O -2.6403272888 0.3175335222 1.5016149506
C -1.5385549076 0.8304558099 1.0319214855
C -0.4944477876 1.257571598 0.6342586992
C 2.6192929015 -0.6361828204 -0.4595145739
N 1.5390249191 -0.98940812 -0.800954277
N 0.4749269841 -1.3008260074 -1.3260442558
H -3.4048130754 0.7386243325 1.0962075181
H 0.4312669771 1.6563991684 0.2929750887
H 3.2693606339 -1.0625371876 0.286190307
H -0.2814393562 -0.8350012954 -0.8185149424
