9
0
O -1.7658430412 1.9225428594 -0.3241469337
C -0.7942840903 1.0379283971 -0.2444794811
N 0.434212408 0.8650552246 -0.2326951376
C 1.8291418936 -1.9783503812 0.2409654762
N 2.2750312733 -3.0093358434 0.4615297721
N -2.0178634589 0.406003065 -0.2114494809
H 0.9475040793 1.7346313905 -0.3362673207
H 1.4006107561 -1.0059718763 0.0410618648
H -2.3024088198 0.2698711645 0.7612772409
