17
0
C 1.3935144646 -0.1223381977 0.9924588686
C 1.1490758487 0.4970383062 -0.3183564185
C 1.1011666894 -1.0311063647 -0.2234109763
C -0.1286289846 -1.7638636448 -0.1310293135
C -1.3555438545 -0.9388053036 -0.0658499351
C -1.3179519837 0.5776465194 0.1482691586
C -0.1491563636 1.2191502003 -0.5939542127
H 2.4050123433 -0.1996617971 1.3660887585
H 0.6387077576 -0.0614879145 1.7639702372
H 2.0199620742 0.8754765523 -0.8415612662
H 1.9795445087 -1.5693537713 -0.5609315724
H -0.3392630226 1.1936459918 -1.6720799595
H -2.1091698274 -1.4243152141 0.5601372798
H -1.7173951836 -1.1631077729 -1.0886496776
H -2.2590936891 1.0203935528 -0.1862231125
H -1.2473832148 0.8007984176 1.2159869142
H -0.0546815628 2.2726334405 -0.3175597728
