14
0
C 0.9882026266 -0.3377844212 -0.7507486632
C -0.0022731499 -1.3597906266 -0.1907930892
C -1.4596213429 -1.0822449096 -0.2430511154
C -0.6681528396 -0.7706809997 0.9952695526
N -0.2786639776 0.6336942274 1.1058851575
C 0.6821102383 0.9189863257 0.0387899181
C -0.6771699615 1.4814122385 -0.0306857701
H 0.8847475961 -0.1959512459 -1.8283289877
H 2.0037992142 -0.6802053319 -0.5476039821
H 0.2347366194 -2.414218456 -0.3100219165
H -1.3714849533 1.080816058 -0.7654331398
H -0.8868166824 -1.2655385568 1.9325658295
H 1.5136742831 1.5592736141 0.3109462232
H -0.8502556706 2.5202470842 0.2218029831
