11
0
C -1.393095108 -0.6653276932 1.2524441571
C -0.1498941883 0.152768654 1.0597189439
C 1.280075899 0.1913915038 -1.1177698171
O 1.6317636823 1.1072010721 -3.0892731527
C 0.568201441 0.1636391901 -0.0180496535
N 0.9282616304 1.1538837787 -2.1160186526
H -2.2429231228 -0.011281072 1.4561450585
H -1.6162177392 -1.2623277162 0.3700592367
H -1.2772917667 -1.3326990749 2.1085129914
H 0.1737984408 0.7892486659 1.8797633127
H 2.1192408315 -0.4664543081 -1.3255184243
