14
0
C -1.4731135498 -0.7407753549 0.3954677833
C -1.0023399604 0.4327474814 -0.4524661313
C 0.4851941136 0.7319400512 -0.2703299249
O 0.7179939538 1.1761734284 1.0471185142
C 1.3189906909 -0.3943378867 -0.787615059
O 2.2591209683 -0.6529086112 0.0905500594
H -2.547747383 -0.8941917077 0.2860434453
H -1.2617754194 -0.5646408397 1.4507443757
H -0.973536047 -1.665378192 0.0945598525
H -1.5553058706 1.3366002097 -0.1873277942
H -1.1800865035 0.2366986272 -1.5118835348
H 0.7530484603 1.5283650086 -0.9930729436
H 1.5784505198 0.8562944478 1.3305980716
H 2.8215510269 -1.3541936622 -0.2531757142
