16
0
C 2.4933027485 -0.25338311 0.1265465949
C 1.0294070049 0.000366031 0.0672256342
C -0.0320883462 -0.7638497733 -0.1841414189
C -1.2706689455 0.0155738541 -0.099586079
C -2.6203106191 -0.5902851104 -0.3286456812
C -1.0637050464 1.318324363 0.2087481332
N 0.4845690373 1.3350507226 0.3268520839
H 2.9041836136 -0.0570674978 1.1215915713
H 2.6948772864 -1.296801143 -0.1130569804
H 3.048511616 0.3638565211 -0.5860205788
H 0.0281882999 -1.8201952524 -0.4174522325
H -3.3890122029 0.1726257215 -0.2108392804
H -2.8268280886 -1.3947106809 0.3835832015
H -2.708926158 -1.0151523248 -1.3329095694
H 0.8191279371 2.0364941271 -0.3306904477
H 0.702189863 1.6791595523 1.2599260493
