11
0
N 1.8620856778 -0.0262395474 -0.6257536365
C 0.5261350663 -0.1371039535 -0.308893636
C -0.1363231736 0.6894945897 0.5579128597
N -1.4500559236 0.4486148742 0.7124972375
C -2.1923995331 -0.5041107149 0.0905939435
N -1.4348057932 -1.2662838846 -0.7802008039
N -0.1631486194 -1.1004560249 -0.9555877731
H 2.4798590917 0.2924985182 0.1001406802
H 2.2074466714 -0.8223973532 -1.1379905007
H 0.31673469 1.5047722241 1.1071416435
H -1.9598241545 1.0353962722 1.3565739859
