12
0
O 2.227963317 1.0396738351 -0.0068923147
C 1.9728600205 -0.0087637714 0.72136525
C 0.868440792 -0.7811619521 0.0725519274
O 1.1657280515 -1.677851373 -0.6812988082
N -0.408058396 -0.5158728621 0.5296951341
C -1.5549557914 -0.6550417726 -0.3269626888
C -1.1352097238 0.6857292589 0.1677281922
H 2.9823699339 1.5057093965 0.3735784653
H -2.4124362618 -1.1435728284 0.1186707595
H -1.3612506266 -0.8983228122 -1.3654479818
H -0.6713267013 1.3570207159 -0.5465337489
H -1.6790466139 1.1632701654 0.973630814
