12
0
C -1.5003911739 -0.8814807251 -0.2253724194
C -0.1289760525 -0.3482316002 -0.0037404321
C 0.109453103 1.1232022874 0.0551961243
O 1.5141814207 1.2272830246 0.2772219639
C 1.0301478518 -1.0775254582 0.1674501743
C 1.9411209756 -0.0257015397 0.3266527374
H -1.4720963869 -1.9683732409 -0.2496068225
H -1.9184529576 -0.5117512296 -1.1666211592
H -2.1801494303 -0.5596406919 0.5695302745
H -0.4013240726 1.6221480834 0.8824043579
H -0.1269131587 1.6483023987 -0.8734925478
H 3.0137138814 -0.0814313086 0.4961127485
