11
0
N 1.9262404895 -0.6946437319 -0.6579090095
C 0.7878418825 -0.1982267489 -0.4601934747
C 0.4758119208 0.7876638749 0.6098083274
N -0.8207559612 0.540783385 1.2193266937
C -1.634533641 -0.1304521054 0.5352469051
N -1.45636747 -0.5670879783 -0.8313931695
N -0.3150511621 -0.5786650452 -1.3081548229
H 1.2502375415 0.7608506622 1.3752608803
H 1.8964602102 -1.3128835513 -1.4706611424
H 0.4671553164 1.8057695726 0.2017315852
H -2.6193341268 -0.3710713337 0.9219632276
