18
0
C -1.2505310762 1.2246854723 -0.3277215301
C -0.7454179584 0.2362388799 0.7279539551
C -1.1271191831 -1.1935225315 0.3684524937
C 0.7282683163 0.4339707756 0.9615802393
C 1.6774468973 -0.4934643566 0.931589961
O 1.3130903372 -0.301961992 -2.3430563002
H -0.9957818994 2.2541550186 -0.0653499882
H -0.8110240735 1.000398221 -1.3025464055
H -2.3362422946 1.1629129586 -0.4237761867
H -1.2361603456 0.4937780952 1.6760571815
H -0.8251992679 -1.9017364594 1.1423746797
H -2.208742901 -1.2760390436 0.2478641341
H -0.6663542578 -1.4971189598 -0.5749845556
H 1.0180985948 1.4598481808 1.18454165
H 2.7119682652 -0.2404769677 1.1308266892
H 1.4548263862 -0.1596042179 -1.4002881368
H 1.4621383815 -1.5360416745 0.7258730936
H 1.784352079 0.4085036009 -2.7802209744
