11
0
O -0.1301005759 1.838156319 -1.3049811408
C 0.2186320078 0.8287466482 -0.7926287524
O -1.6170765653 -0.8515442943 -0.0793654337
C -1.3961004601 -0.1951552494 1.1794572908
C -0.4097754407 -0.2219652239 0.1142703496
C 1.4850817583 -0.0206252332 -0.7304304219
O 0.7907217936 -0.9543266472 0.120396209
H -1.2491535945 -0.8650789013 2.0204450702
H -1.9960556093 0.6927702663 1.3506354278
H 2.334846729 0.4510571187 -0.2331414298
H 1.7924509569 -0.4687758029 -1.6775911688
