11
0
C 2.8761818515 -0.1723330622 0.5228400761
C 1.744149721 0.1812010194 0.3507262387
C 0.4114458281 0.5609002797 0.169774469
C -0.5089448052 1.3737726762 -0.2016496917
C -1.010094773 0.0685052832 0.3434221214
C -1.533758044 -0.9609089523 -0.6034786223
O -1.2469856856 -1.0149477609 -1.7689106912
H 3.8846653407 -0.4808712885 0.6687366586
H -0.8195621472 2.3061724995 -0.6358973545
H -1.4333819048 0.0244995599 1.3462742256
H -2.2303033816 -1.7012902539 -0.1576294296
