9
0
O 0.290739925 1.4218682411 -0.0140637203
C 0.3007833032 0.0454694571 -0.0551656158
C -0.8644078646 -0.6045728555 -0.1150229848
O -2.0511192658 0.0075651576 -0.0782115369
C 1.5524472895 -0.6333681243 -0.0988702472
N 2.580896456 -1.148509575 -0.1050456521
H -1.904463198 0.9582762744 0.0035239612
H 0.9830399013 1.7406046438 0.5696260503
H -0.9165245464 -1.679471219 -0.2147322545
