14
0
C 0.8722469373 0.5750478076 -0.5159551679
O 1.3163656229 -0.1424734211 0.6208570131
C 0.3610379777 -1.1748118444 0.8392860248
C -0.9814201664 -0.6460520434 0.2946516745
C -0.6201359934 0.7369730838 -0.2703784787
O -0.8802728841 1.7808010772 0.6472947387
H 1.0612497181 0.006835419 -1.4384411707
H 1.4051769702 1.5241950432 -0.5588611204
H -0.285111408 1.6685501739 1.3940207242
H 0.3460108944 -1.3895261186 1.9079253381
H 0.6730498202 -2.0829421929 0.310224297
H -1.7474980166 -0.5454467922 1.0622532102
H -1.3715419131 -1.2968769266 -0.4886545119
H -1.179106559 0.9833127344 -1.172793571
