19
0
C 2.1265879331 0.2509223928 1.8263366445
C 0.7750511833 0.3387251153 1.1290259689
C 0.87500604 0.2483782672 -0.3942150264
O 1.4782840488 -1.0062495275 -0.6941881048
C -0.3425787182 0.48421816 -1.2282331938
C -2.6550575917 -0.623307464 -1.3093613196
O -1.5467206155 -0.3536356248 -0.442677141
H 2.6194923096 -0.6898128483 1.5814795346
H 2.7827282344 1.0650331671 1.5084528817
H 2.0195129825 0.3123137209 2.9114778953
H 0.1403105164 -0.4800828908 1.4850136542
H 0.2852419149 1.2841290233 1.3908438801
H 1.5388588902 1.0670662397 -0.7322414201
H 1.2007739104 -1.1933661308 -1.5959716217
H -0.7034039995 1.5072614548 -1.0402612605
H -3.3815024212 -1.2253516699 -0.7629408476
H -3.0991246031 0.3075358912 -1.6632566325
H -2.2421524339 -1.1685428168 -2.151293699
H -1.8399645805 0.0807445407 0.3666158074
