14
0
C 1.4503137422 0.3135509488 -1.0218259161
C 0.256331108 0.2955685864 -0.0962822747
O 0.5496390034 0.8811783567 1.1374903168
C -0.5108295129 -1.0125640923 0.1231155231
C -1.7118772735 -0.2366396393 -0.4230601703
O -0.8857841189 0.9021138233 -0.7166793007
H 2.2983257417 -0.1869969616 -0.553184041
H 1.2131204295 -0.1804746054 -1.9636213525
H 1.7278468262 1.3473157766 -1.2445265817
H -0.1761892305 -1.8387029201 -0.5011608241
H -0.5636665879 -1.3218488088 1.1637191355
H -2.4851467803 0.0030568095 0.3106529919
H -2.1757459616 -0.636791233 -1.3268441723
H 0.8961216144 1.763939959 0.9817116661
