8
0
O 2.4812733957 0.0228819099 1.4670411407
C -0.7773893926 0.6579058723 -0.8503717627
C -0.6521643523 -0.4683417386 -0.1642432721
N 0.4176068349 -0.7922113428 0.6651855505
C 1.4578791442 -0.3272820543 1.0398075024
H -1.649760098 0.8141052862 -1.4693582902
H -1.4049344909 -1.2449693043 -0.2051310314
H -0.0301010411 1.4411163718 -0.815909837
