13
0
O -2.3496849078 -1.1418520229 0.2607707663
C -1.1808404682 -1.082645233 0.0060326595
C -0.1831024567 -0.2840165094 0.8191556167
N 0.8417997156 0.3098004976 -0.003029431
C 2.0628374233 -0.259596943 -0.1654900698
O 2.4112626149 -1.2949730759 0.3482867876
H -2.2162657387 1.7714680309 -0.5775081383
H -0.7443443526 -1.6218719985 -0.8603229058
H 0.30748818 -0.976298603 1.5095591398
H -0.7112101308 0.4709193767 1.4020928957
H -1.9105740379 2.3897941691 -0.8607387905
H 0.642694192 1.1626937365 -0.4947922909
H 2.7206869669 0.3341695749 -0.8231522392
