13
0
C -1.4982662281 -0.9007826297 0.3463685938
C -0.1955679434 -0.2199906657 0.0520321376
C -0.2701710804 1.2442295744 -0.2804403523
O 2.7292709192 0.3096966837 0.6886189353
C 2.1454466786 -0.3941716876 -0.0931206673
N 0.8715348517 -0.9004177275 0.0843423482
H -1.3439510401 -1.9639967053 0.513052203
H -2.2010802375 -0.7551098472 -0.4773622201
H -1.9527781867 -0.4574208249 1.2359344772
H -0.8529797243 1.3794354313 -1.1949060646
H -0.7974716009 1.7745993025 0.5151039355
H 0.7118398221 1.6940974938 -0.4043254309
H 2.6296387698 -0.7861793978 -1.0059488952
