14
0
N 2.1940046889 0.487257676 1.7187960696
C 0.9121429671 0.5601194335 1.2709035945
O 0.1886404682 1.4962056055 1.5211737947
C 0.46294799 -0.6495751026 0.4415997174
C -0.9170059333 -0.537930656 -0.0782064857
C -2.1224520266 0.1501835385 -1.9717939589
O -1.0550435326 -0.1477616356 -1.3005028249
H 2.5577171908 1.2516709303 2.258704539
H 2.7988921455 -0.2762750612 1.4835280221
H 0.5666062632 -1.5384807543 1.0740178375
H 1.1570676624 -0.7782395738 -0.3938293547
H -1.7993606889 -0.5727534638 0.5489656261
H -3.0863545788 0.1128862861 -1.4836253742
H -1.9560816159 0.4147157772 -3.0006312024
