16
0
C -1.0717232919 -0.8187536568 0.749793375
C -0.2615884757 0.2452312308 0.0128459654
C -0.3675293551 0.0765405731 -1.5010781809
C 1.2051506748 0.2280139415 0.4649414614
O 1.7484862362 -1.0304196091 0.1354517093
C -1.1664763398 2.5948004197 0.66194459
N -0.7673614444 1.5417266422 0.3696069978
H -0.6714549515 -1.8044830927 0.5172025569
H -1.0192331981 -0.6636261051 1.8281490737
H -2.1173777802 -0.7767359834 0.4441082555
H -1.4112515135 0.1166366289 -1.8135876273
H 0.0541976581 -0.8851012406 -1.7899235392
H 0.1785673129 0.8682411185 -2.0153871103
H 1.7373692905 1.0422261914 -0.0411487461
H 1.2412408361 0.4112667771 1.545426214
H 2.6600103414 -1.0630388356 0.4265290048
