16
0
C 1.9996172611 0.3955781908 -0.0233520839
C 0.8663006137 -0.1882825456 -0.8565338362
C -0.4616692368 0.3355550664 -0.4827854527
O -0.2724466782 -1.5175548076 2.1632042166
C -1.2136572148 1.1041240084 0.2300172236
C -1.9283509376 0.2643073347 -0.790344692
H 2.9627115678 0.0038907723 -0.3530329745
H 1.8752325425 0.1394311381 1.0299575721
H 2.0280590401 1.4832811592 -0.1099896064
H 0.8403642257 -1.2780438665 -0.757968723
H 1.0191339877 0.0103564601 -1.9224530965
H -0.9845801328 -2.147282318 2.044763901
H -0.5377786286 -0.7406420845 1.6589974447
H -1.3276950878 1.8578199883 0.989255408
H -2.5075177581 -0.6033516927 -0.4718620465
H -2.3073805637 0.7272591965 -1.701191254
