16
0
C -1.9522389377 -0.5361035704 0.4813327848
C -0.9132705463 0.421279854 -0.1673622015
O -1.5294380388 1.6224747476 -0.5747320354
C 0.0402151022 0.5877642625 0.9201568829
C 1.0210281376 -0.5066469326 1.0313773942
C 2.2967157443 0.0988491499 0.3969697984
H -2.2106693576 -0.2161010054 1.4931866047
H -1.5983199572 -1.5662045384 0.506531442
H -2.8503355011 -0.4732828497 -0.1312109192
H -0.5118090857 -0.0674982342 -1.0667358478
H -1.3162064274 2.2678000762 0.1071017905
H 2.6131957692 0.9948428161 0.9293272023
H 1.2423068727 -0.7355096712 2.0756227376
H 0.768207761 -1.4345459203 0.4988145464
H 2.136988942 0.3596717564 -0.6504031207
H 3.0962965229 -0.6402529404 0.4428759407
