13
0
N -1.6840461786 -0.4417732783 -0.2667324169
C -0.2632343776 -0.2813475432 -0.3950130164
C 0.3274458959 1.0685886574 -0.0335193626
C 1.1600983659 0.9274799679 0.9914218301
C 1.2374429326 -0.5109599661 1.4481342895
O 0.0354655064 -0.6800054704 -1.7009850918
N 0.4164597486 -1.1081938617 0.6190266806
H -2.1580000955 0.044261245 -1.0156847119
H -2.0093116427 -0.0898276663 0.6233258882
H 0.0578401918 1.964970327 -0.5773076658
H 1.7226915689 1.7140060819 1.4746061992
H 0.96162071 -0.4898225425 -1.8725699459
H 0.2092553743 -2.0949209505 0.6524753236
