13
0
C 2.249747463 0.1178896117 -0.2017495355
O 1.8336415534 -1.220062587 -0.3582576738
C -0.4003389752 -0.4362847361 -0.6480498572
C 0.5031348696 -1.3825693451 -0.5883287306
N -2.791654017 0.0772276257 0.9072757979
C -2.0646156355 0.8738865264 0.2594924932
N -1.2457142574 0.439632074 -0.8005038829
H 2.0253894388 0.7065298117 -1.0977642401
H 3.3249220171 0.0959084418 -0.0397005947
H 1.7595924601 0.5800879309 0.6631892295
H 0.1988106393 -2.4125263495 -0.7103534993
H -3.3567675628 0.5816254122 1.5845312248
H -2.0403349934 1.9592915831 0.3817562687
