12
0
O -2.0383238872 -0.6274162792 2.5671814338
C -1.5028652145 0.0828816878 1.8248029031
C -0.88633204 0.8801808506 0.9918856466
C 0.4917195625 0.5790772176 0.444152045
C 0.4997476331 0.3266673877 -1.044258464
C 0.8422156289 -0.8184682047 -1.5685696819
N 1.2708058055 -1.8549935458 -2.0493772184
H 0.5756837356 -2.5801982984 -2.2056711691
H -1.4269917222 1.7649974331 0.6823140892
H 0.913994762 -0.2838546309 0.9601473079
H 1.1518940594 1.4216306482 0.6672711255
H 0.1935866769 1.116390734 -1.7199660178
