15
0
O 2.5535573266 0.7231343314 0.6088478146
C 1.3439563318 0.5465901564 -0.0901593295
C 0.4767958564 -0.5091089136 0.54710853
O -0.0772787164 -0.0350698141 1.8153005797
C -1.3477233889 -0.1090740146 1.4473469242
C -1.5199016604 0.0001956803 -1.1519128991
C -0.977382194 -0.6940902274 0.0822474834
H 2.3518916685 1.0663924423 1.4824947744
H 0.7896035378 1.4891404142 -0.16992542
H 1.6051093768 0.2245502169 -1.1009676222
H 1.0606035207 -1.4159144705 0.7188189389
H -1.3053246377 1.0695964891 -1.1493013972
H -1.103500774 -0.4283979387 -2.0651870252
H -2.6038571212 -0.1152177694 -1.1877429768
H -1.2632981261 -1.7505065823 0.0769306249
