11
0
C -0.9526981402 -0.4658255832 -0.1625694274
C -0.1633535069 0.4174529106 0.8150841857
C 1.1051027644 0.8475902699 0.1186514692
O 0.4383453201 1.2345409963 -0.9765591761
C -0.858626156 0.9810328974 -0.3830230482
H -1.8898938747 -0.8319229677 0.239234026
H -0.4216285465 -1.1411050799 -0.8226250709
H -0.3854185639 0.445626522 1.8695883966
H 2.6202717478 -2.1905884533 -0.2021625393
H 2.5495275202 -1.4538739765 -0.098388848
H -1.6398965643 1.7157394644 -0.5100259675
