11
0
C -1.2002204915 0.4180299718 0.4076511346
C 0.1036458859 0.4134116473 0.1469468085
C 0.8971738061 -0.7707809316 -0.2352748688
O 2.0845064705 -0.3517731952 -0.3862964974
N 2.2408441273 1.1715264199 -0.1253440581
C 1.0675506584 1.5229790753 0.1705062798
H -1.7619435421 -0.5055115365 0.3441134246
H -1.7302056487 1.3210094653 0.6873821489
H -1.6942194438 -3.2889736749 -0.5842373944
H -1.0397289799 -2.9279032576 -0.5690909168
H 0.8598931577 2.5577190164 0.4083359391
