16
0
C 1.8337887463 -1.3351724078 0.5842634173
C 0.5773848558 -0.6003697823 0.9867152771
N 0.6101849884 0.8614108065 0.7798828461
C -0.4162713361 0.8740835479 -0.0715504463
O -0.9557311072 1.8229715951 -0.6415123733
C -0.6121616014 -0.6113956842 -0.0188586205
C -2.1727431362 1.3297178121 -1.6124149052
H 2.1167396628 -1.0860572925 -0.4403424209
H 1.6680443102 -2.4122462205 0.6438341075
H 2.667164367 -1.088159033 1.2447387937
H 0.2781261365 -0.8513967916 2.0064929574
H 1.1613742304 1.6081502106 1.169275478
H -1.5878200065 -0.9048082732 0.3593993549
H -1.7854744879 1.7615315655 -2.5487157226
H -2.9235927929 2.0599670902 -1.2746694973
H -0.4327538292 -1.1084931428 -0.969304246
