11
0
O 2.3380505875 -1.5602969186 -0.4542403912
C 1.3791800875 -0.9389575704 -0.1294783846
O 0.0887888224 -1.4604335818 -0.2440651764
C -0.7893715432 -0.5396931316 0.321371516
C -1.3322648799 0.8050503627 -0.2354693289
C -0.0614674081 0.6947496249 0.4927365088
C 1.2285199202 0.5058273782 0.233946218
H -1.4080188273 -0.9619008323 1.1042704821
H -1.261834707 1.1081097391 -1.2740880259
H -2.2475196651 1.0940792064 0.2672411743
H 2.0036246132 1.2197947237 -0.0001895923
