14
0
C 1.5968702683 -0.0584902118 0.4434311018
C 0.4724692573 0.2754166666 -0.5696868121
C -0.0984073731 -1.074218214 -0.8250182896
C -1.3277485686 -1.0422276215 -0.0378926092
O -1.4503905463 0.1401399917 0.7362120114
C -0.646157016 1.1021015606 0.0780010892
H 1.1948537333 -0.5443145596 1.334404291
H 2.0675292842 0.8742216785 0.755982726
H 2.3495552499 -0.7073822576 -0.0001640527
H 0.9219687193 0.7313051394 -1.4520851535
H -1.2307912722 1.6336943759 -0.6858327875
H -1.548492449 -1.9232233775 0.5654349692
H -2.0573323267 -1.0518030263 -0.8832165531
H -0.2987059608 1.8241838555 0.8183040691
