17
0
C 2.1948707518 -0.583000831 0.7717050051
O 0.8477034049 -0.1905794128 0.6455843417
C 0.4354680178 -0.0286764217 -0.7038980877
C -1.0192373165 0.4207046653 -0.747384105
C -1.9761940321 -0.602347355 -0.1210427184
C -1.3515124168 1.770282855 -0.1149741694
O -0.5924598865 2.0472422487 0.9033309735
H 2.3653108893 -1.5413911936 0.2689626045
H 2.4061460949 -0.6939461909 1.8337333859
H 2.869941066 0.1672000057 0.3435091205
H 1.0788415021 0.7161494521 -1.1941520944
H 0.5581496129 -0.9788139887 -1.241805143
H -1.2846312015 0.5211776279 -1.8039512495
H -1.925077042 -1.5502393022 -0.6596039647
H -1.7229837119 -0.7885888704 0.9234167544
H -3.0026694621 -0.236599696 -0.1627369046
H 0.0772677298 1.350687408 1.0944342514
