12
0
C -1.1377948057 -0.8866718981 0.5302050534
C -0.1825153908 0.2925446472 0.417355491
O -0.2010850143 0.9606866937 1.6434486641
C 1.183790964 -0.1463683656 0.0688202885
C 2.2946089594 -0.5075360251 -0.1835819331
C -1.0349064621 1.8988722333 -1.4530128872
N -0.644206149 1.1778548238 -0.6257612433
H -1.189599592 -1.4199753293 -0.4169293814
H -0.7784901301 -1.556530133 1.3091525344
H -2.1247465526 -0.5115743982 0.7971063156
H 0.4811036785 1.6382936618 1.6422979753
H 3.2839754947 -0.8268909106 -0.4146798774
