18
0
C 1.8181528649 -1.5658387144 1.1831571548
O 1.6129256052 1.5734161196 -0.654997806
C 1.1617972861 0.9472211149 -1.5712951705
C -1.8358446285 0.5710536903 -0.3763753285
C -1.3497421569 1.1706539 0.9024782534
C -1.5737306026 -0.6622810484 -0.7866093327
H 1.028337308 -1.7059881464 1.9205478577
H 1.9050697281 -0.5090696519 0.9321071266
H 2.7611512347 -1.9211502758 1.5959827498
H 0.578174917 1.4283257301 -2.3777541546
H 1.3088470913 -0.1446061756 -1.6641854251
H -2.4495241611 1.2116933248 -1.0063591209
H -0.7201084991 2.0424814424 0.7063046763
H -2.1887130593 1.5079898141 1.5160831977
H -0.7617164204 0.4559060194 1.4791460875
H -1.9594101397 -1.0433918383 -1.724825536
H 1.58099998 -2.1411200024 0.2881860674
H -0.9738933475 -1.3391873028 -0.1863472968
