10
0
N -1.0192729372 1.5217990962 -1.0426125577
C -0.3544166058 0.6281159025 -0.4871339552
O 0.8571106586 0.0723303117 -0.8377842128
C 0.9639666295 -0.8585836332 0.2480244565
O 0.669542803 -0.0889722672 1.3956750855
C -0.627858736 -0.1795584375 0.7734736345
O -0.296660334 -1.4948799572 0.2856402865
H -0.5636227034 1.8702804547 -1.8825769846
H 1.8714956488 -1.4496833638 0.2067600112
H -1.5155724236 -0.0493381062 1.3808002361
