11
0
C 3.3326139853 -0.0223349409 0.0144907254
C 2.2490776549 0.4900025078 0.0012844029
C 0.9760593817 1.138684403 -0.0174897694
C -0.1661280888 0.4985534413 0.0120162938
C -1.2909067187 -0.1205880594 0.0059045883
C -2.42967497 -0.7782291788 -0.5654164876
O -2.2256263895 -0.6098456407 0.8624860908
H 4.2895081283 -0.4880460096 0.027750497
H 0.9853148633 2.2251889898 -0.0556551736
H -2.3375990027 -1.7999052498 -0.9189799496
H -3.2403748439 -0.1879542627 -0.9796462181
