14
0
O 2.0586102506 0.4531710212 0.6110644636
C 1.3758693698 -0.0903024008 -0.5051379505
C 0.2125208672 -0.9128576268 0.0127485351
C -0.8157833669 -0.1036686603 0.7719131859
C -2.6403594026 0.6106036622 -0.4914131658
O -1.4325929294 0.8600419265 -0.1170615884
H 2.7211319927 1.0720399632 0.3032343922
H 2.0408201084 -0.7335331199 -1.0939729083
H 1.0077025991 0.7056287326 -1.1630712854
H 0.596005492 -1.6839672967 0.6864318777
H -0.2764599413 -1.4224800275 -0.8221455515
H -1.6141867689 -0.7314882919 1.1675033925
H -0.3501981848 0.4789328999 1.5660292665
H -2.8696290862 1.4663432183 -1.1680496636
