12
0
O 2.5783916502 1.5962083732 0.6230387834
C 1.8897763041 0.9349729634 -0.0422665995
N 1.2272214584 0.3375729766 -0.8474341412
C 0.3481245701 -0.7953639929 -0.79675453
C -0.7730454565 -0.6502841088 0.206095604
O -0.436307708 -0.1025422153 1.4619119927
C -1.3178709759 0.6347979494 0.6213110956
H -0.905099358 1.5508045081 0.2110762398
H 0.9211878012 -1.696252816 -0.5580780993
H -0.0849579219 -0.9396306613 -1.7880587272
H -1.4212141164 -1.5241796956 0.2519200535
H -2.3445402476 0.6919757194 0.9692663282
