15
0
O -1.852355388 0.9790947937 0.621470551
C -0.8878646059 -0.0842037782 0.3554277392
C -0.4678739104 -0.3083377373 -1.1014560338
C 0.9550547667 -0.3637588467 -0.5839364076
C 2.0715280418 -0.9009408664 -1.034738904
O -1.5329293339 2.2166461819 -0.0963245784
C 0.5473130033 0.2843399307 0.7236145185
H -2.7101947768 0.7329257775 0.2524512461
H -1.2846958975 -0.9609013904 0.8685319171
H -0.6494827748 0.6123611023 -1.6611536999
H -0.8698266528 -1.1747885077 -1.6250465927
H 2.9841131633 -0.8764520512 -0.4512653119
H 2.1119203742 -1.3797577564 -2.0059300706
H 0.6510110021 1.3708077921 0.6773144605
H 0.9534959888 -0.1065506439 1.6547231663
