11
0
O -1.1032786375 -0.4208110609 -0.3867092021
C -1.1195593299 0.258492147 0.8249264496
N -0.1885896142 1.1831342595 0.9965862437
C 0.8904661669 1.4944083883 0.2982734237
C -0.3001844788 -1.4473993256 -0.4564579001
C 0.425127581 -2.3892922846 -0.5788441611
H -2.0505673584 0.2933424511 1.3615003391
H -0.327804043 1.7172224452 1.8444464696
H 1.1176970328 0.9424301608 -0.5972971495
H 1.5378713578 2.2582629842 0.6905573481
H 1.0650233233 -3.230899165 -0.6831438611
