16
0
C 2.0392239675 0.0280283832 -0.4737014496
C 0.7277406218 -0.036974286 -0.3286487232
C -0.328998515 0.9709475097 -0.0335564973
C -1.481510115 0.7969187894 -0.9878232496
C -1.3404802552 -0.1664930752 0.1346612759
C -0.2567912384 -1.195057541 -0.1982548016
H 2.5629096118 0.9759629657 -0.4358260638
H 0.9818979222 -0.1340644845 2.5511528298
H 2.6314931143 -0.8661928791 -0.6279067677
H -0.2075886045 1.8756738317 0.5464444116
H -2.2670782371 1.5343477195 -0.877114702
H -1.2976496046 0.4820157734 -2.0096951847
H 0.6241101296 -0.1532448 3.2055444728
H -2.0923548848 -0.2765416829 0.9031271561
H -0.4340831263 -1.8115611794 -1.0824896508
H -0.0007007859 -1.8411190443 0.6424269443
