13
0
C -0.9162213331 -1.2896442921 0.1526440479
C -0.0662478135 -0.0818750668 0.442433728
C 1.2936693396 0.0666928811 -0.2660736987
O -0.0627593561 0.3310999153 1.7803274332
C 0.1562787707 0.9464921085 -0.5747268182
N -0.3578100051 1.9221191363 -1.1684713961
H -0.5941825926 -2.1268504751 0.7743903641
H -1.9645425572 -1.0769834951 0.3719369565
H -0.8454158809 -1.579639783 -0.8965444569
H 2.1005938942 0.4838975599 0.3258036442
H 0.3101650309 2.3469441335 -1.8120300649
H 1.5809844301 -0.7041813582 -0.9725725277
H -0.812697927 0.9145767356 1.9172747884
