14
0
C 1.4872023154 0.4717643586 -0.3961908939
C 0.2643677175 0.0738905434 0.4291626887
C -0.1111110552 -1.3841741651 0.1895964012
C -2.0652757615 0.6215245734 -0.2754764859
O -3.1068732377 0.274830817 -0.6488743395
C -0.891708949 1.0130618989 0.1498725317
H 1.2841032476 0.3532861706 -1.4632044947
H 1.7621840223 1.5136654016 -0.2206536278
H 2.3467812464 -0.1519012904 -0.1396410521
H 0.5226803196 0.1847031508 1.488573732
H -0.9605659695 -1.6873852203 0.8053355741
H 0.7268064492 -2.0399763342 0.430925505
H -0.7763984144 2.0814556537 0.2862862459
H -0.3729589308 -1.5531845581 -0.8587627846
