19
0
C 2.1894772586 0.3224461035 -0.2490584012
C 1.0486282669 -0.0329287136 0.6940783322
C -0.3271028633 -0.0896818566 0.0555856691
C -0.4281943862 -1.0161199796 -1.1369773733
C -1.4878728784 -0.2379204807 1.0328130437
C -2.2778923046 0.9033438217 0.3774899805
O -0.6871764257 1.2954882506 -0.3726110906
H 1.9942185412 1.2680043671 -0.7591402033
H 2.3536001014 -0.446390337 -1.0059901504
H 3.1211305417 0.4352519081 0.3064064974
H 1.0003394364 0.6958237843 1.5069451617
H 1.2252762869 -1.0065794805 1.1621652124
H 0.2494722265 -0.7175152259 -1.940176718
H -0.1645510885 -2.0313795492 -0.8364055717
H -1.4526784872 -1.0231081662 -1.5127933784
H -1.1602969648 -0.0900277838 2.0680084858
H -1.9882216405 -1.206100894 0.9627567119
H -2.3011541341 1.7634336101 1.0602220467
H -0.8990184863 1.3083036218 -1.3096942543
