11
0
C -1.2570135957 -0.2836043849 0.0350145275
C 0.1911469868 0.1282723316 0.0479494024
C 1.1262093508 -0.4920456102 1.019185235
O 1.0830633819 -0.741457414 -0.7227476138
C 0.3969494134 1.5044373164 -0.4058336867
N 0.5358723799 2.6054901176 -0.6959499398
H -1.6978779929 -0.1739265125 -0.9574020642
H -1.3375854142 -1.3145490668 0.3821178277
H -1.8117372347 0.3479092891 0.7297033335
H 2.0191843981 0.1466897184 1.0526755088
H 0.6834303266 -1.6188567849 -0.7556885303
