13
0
O -1.7494666712 -1.0001605659 0.463203625
C -0.729858629 -0.2186381022 0.1239477443
C -0.9038337959 1.1866899072 0.5520168062
N 1.0491791034 0.284721951 -1.4577137806
C 1.7454225401 -0.1005257057 -0.3656562023
C 0.3120932086 -0.6943221547 -0.6519846204
H -1.5997819544 -1.8949901672 0.1363125854
H -1.7585169065 1.6133323193 0.0211717935
H -1.1252487735 1.2259437763 1.6200896087
H -0.0231085599 1.7690788648 0.2986682075
H 1.9506767015 0.5810052215 0.4759588786
H 2.3967176255 -0.991064731 -0.3520942565
H 0.2993521113 -1.7576716134 -0.9150243893
