15
0
C -2.0928484093 0.4001362705 0.149352547
N -1.2309981469 -0.432913282 -0.6825670481
C 1.0817551449 -0.6456460375 1.2118383038
N 0.7068782833 -0.5997147373 2.2952351007
C 1.6021383838 -0.6941944918 -0.1820376262
O 1.8148160068 -1.7562999291 -0.6929776506
C 1.8907726204 0.6425515121 -0.7889702895
H -1.9109489186 1.451827929 -0.0798498614
H -1.8352324392 0.2453419587 1.1979361084
H -3.1651841727 0.2076906019 0.0271842292
H -1.4431294039 -0.3090070539 -1.6636096368
H -1.3715264007 -1.4130680935 -0.4749935608
H 2.7581817336 1.077363645 -0.2850380696
H 2.1068733672 0.5195728861 -1.8477391006
H 1.0420513512 1.3088878217 -0.6409784455
