19
0
C -1.278291322 -1.8002435705 -0.8619733803
C -1.3451024685 -0.3526316445 -0.489240398
C -1.1717123831 0.1277802514 0.7348866636
C -1.2206213102 1.5741227255 1.107745704
O 1.734289589 1.9574621152 -0.5144527885
C 1.8070232967 0.7788094253 -0.7323482806
C 2.3911396811 -0.2273654936 0.2117486276
H -2.2216326045 -2.1424401189 -1.2952848634
H -0.5044585887 -1.9799895092 -1.6144323257
H -1.0592876154 -2.4253607536 0.0056534421
H -1.5505797324 0.348141674 -1.296754446
H -0.9685725615 -0.5749638522 1.5424524879
H -1.9731491435 1.755209076 1.8795415301
H -0.2589923364 1.9079897658 1.5063676345
H -1.4530804094 2.1991105375 0.2448714413
H 1.4362036902 0.3657907766 -1.6935879166
H 2.685418347 0.2456695795 1.1467955796
H 1.6576561309 -1.0147858422 0.3989451161
H 3.2601907408 -0.6978211423 -0.2562818276
