10
0
O 1.8773778397 -1.436433319 -1.2460371597
C 1.5165756529 -0.5882720772 -0.4802749819
N -0.2277315993 0.7560119829 0.5546614779
C -1.3665696222 1.167722504 0.2165937699
C 0.1498766874 -0.5823149906 0.169821447
H 2.1776354327 0.2494399284 -0.1820217469
H -2.0808380875 0.5614166965 -0.3540144316
H -1.6713298658 2.1740612309 0.4966156777
H -0.5660231738 -1.0904528123 -0.488789674
H 0.2514557361 -1.1819451436 1.0830386217
