16
0
C -2.0646527238 -0.8188818023 -0.3930140724
C -1.3663503481 0.2538592474 0.4343891737
C 0.1279819341 0.1761252901 0.3161750243
O 0.6907412637 0.6804367563 -0.899048638
C 0.9819471866 1.3570490282 0.3234583423
O 2.9127512632 -1.0401760098 -0.9073064327
H -3.148546247 -0.7511720735 -0.2899942603
H -1.8181019223 -0.7100352079 -1.4505298424
H -1.7602618762 -1.819790478 -0.0789115889
H -1.693348877 1.248239076 0.1190085022
H -1.6309255706 0.1492398199 1.4912771814
H 0.5814369316 -0.7622867362 0.6322830451
H 2.1825291378 -0.4552529766 -1.1596114875
H 2.0119327967 1.2730009968 0.6558937297
H 0.5292929928 2.3402007341 0.4120598801
H 3.4560280585 -1.1314496644 -1.6897885565
