15
0
O -1.8495137132 0.1592382114 -0.4023224212
C -1.2452556252 -0.0791564844 0.8528144945
C 0.1600887798 0.3935440397 0.7964601719
C 0.9823957809 0.9736660513 1.6845151048
C 2.0991025266 0.9688985343 0.7045019059
O 3.2421238429 1.3122805025 0.6919986233
C 1.1627408489 0.3077808468 -0.3411588803
H -2.7349212946 -0.2079859608 -0.3960123054
H -1.7796532092 0.4298193985 1.6631026093
H -1.230135087 -1.1543942221 1.0841769734
H -1.0812594457 -2.0661926351 -1.5398647113
H 0.8688280118 1.3094945592 2.7067798122
H -0.9402882499 -2.7907119231 -1.6512616047
H 0.9353402284 0.9175330206 -1.2160439714
H 1.4535066056 -0.6965689388 -0.655498801
