15
0
C -1.7170907878 0.1676431082 -0.9163446743
C -1.1855734533 1.0283442631 0.2123525618
O -0.219195959 0.3661632337 1.0200361769
C 1.0062637294 0.1944386504 0.4042082064
C 1.9220836243 -0.9107170754 0.9763212612
C 1.3285645985 -1.0306673411 -0.3612217813
O 1.1515618111 -1.7075469111 -1.3248700019
H -0.9370164806 -0.0912754962 -1.6332580489
H -2.1381136005 -0.7586970357 -0.5225301599
H -2.5048690518 0.704163749 -1.4491124661
H -1.9853158856 1.2970824841 0.903474478
H 1.5165172893 1.1136466211 0.1092760621
H 2.9715318255 -0.6800124422 1.1165822698
H 1.4810291492 -1.5439519239 1.7399438715
H -0.7555558087 1.959979116 -0.178762755
