12
0
N 1.6084954919 0.034385212 -0.1472293626
C 0.4995933859 0.6826471315 0.1419255246
O 0.5713588152 2.0008600793 0.0834422747
C -0.7014187222 0.0068280961 0.4718305808
C -1.3344224444 -0.7786547997 -0.7216753098
N -0.5507568767 -1.4372723933 0.3509143527
H 2.358819691 0.4811236966 -0.6430154455
H 1.5121985946 -0.974628183 -0.1007653769
H -1.3666735695 0.4854574935 1.1847496489
H -0.6473528915 -0.692268861 -1.5816666413
H -0.3077359748 2.3708032451 0.2199751842
H -1.1949564994 -1.8601947173 1.0089665701
