14
0
C 2.1649032826 -0.1442810904 -0.4733921622
C 1.172876058 -0.4533530435 0.6201149926
O 0.1077150456 0.5246749809 0.6021687698
C -0.9926181525 0.1730771773 0.0295125975
C -1.9537182008 1.3135312871 0.0847050549
O -3.1626234371 1.0019323988 -0.5604422047
H 1.6893514978 -0.2281894669 -1.4517886931
H 2.99445492 -0.8516868277 -0.4299270832
H 2.5673508474 0.863680441 -0.3639757418
H 1.6212905346 -0.3745297913 1.6109033209
H 0.7139196652 -1.4343768625 0.4956201504
H -1.4954302999 2.1986074905 -0.3788255703
H -2.1360748243 1.5605520181 1.1414873146
H -3.0831829365 0.0891522886 -0.8544067452
