13
0
O 1.1098294885 2.200538395 0.2611281041
C 0.6018987034 1.2108585212 -0.1715270157
C 1.3311659137 0.1724211928 -1.0970981247
O 0.4006701272 -0.6304069904 -1.4750689961
C -0.9347321929 -0.3920369124 -0.920269745
C -1.0000097226 -0.6302986425 0.5342659053
C -0.8278095587 0.7748542652 -0.0253268808
H 2.5002769126 -0.9756216934 1.6444977919
H 2.6608580468 -0.814689002 0.9323984376
H -1.7165354773 -0.6091568538 -1.6309952368
H -0.1494817934 -1.1064452509 1.0074291975
H -1.9616134549 -0.8604575772 0.9728460636
H -1.6016139925 1.5164805485 0.100988499
