15
0
C -2.4312869431 -0.1031445558 0.0196168716
C -0.9190740585 -0.0626733626 -0.1029891545
C -0.216104053 0.0571235985 1.231431112
O -0.8162468071 0.107097591 2.2782844002
C 1.2735393277 0.1114481399 1.2390782206
C 2.0113014818 0.0745568305 0.1628969768
C 2.736907264 0.0389059796 -0.9113511289
H -2.7519146652 -0.9490381905 0.6277488488
H -2.8926458004 -0.1905805412 -0.9649909439
H -2.8097692965 0.8007042255 0.4971943752
H -0.5930186963 0.7739655465 -0.7289540269
H -0.5358612089 -0.9596116829 -0.5997464963
H 3.015209563 0.9512890516 -1.425673437
H 1.7333211914 0.1869776422 2.2187443504
H 3.086624701 -0.9033582724 -1.3166899679
