12
0
N 1.8408129418 0.4488248538 0.0147222775
C 0.3978332867 0.2051367135 -0.1240663381
C -0.4455831551 1.234776585 -0.3406738044
C -1.7156626296 0.5431344772 -0.1829120714
C -1.5270090202 -0.7642313344 0.1622946018
N -0.1671875709 -1.002109234 0.2751606483
H 2.4393970969 -0.0667871664 -0.6300031575
H 2.1902923104 0.3257450366 0.9659292886
H 1.8546359314 1.4501770828 -0.2240192084
H -2.6939038211 0.9951107512 -0.2860041783
H -2.2303602393 -1.5649614443 0.3448983583
H 0.215183869 -1.9186973211 0.1120035835
