17
0
C -2.3302723269 -0.0855658222 0.5587927363
C -1.0126530169 -0.0630348329 0.6223618228
C 0.014943665 1.0532596007 0.6945363096
C 1.0615428377 -8.75079e-05 0.3352654574
C 2.1803846249 0.0917678396 -0.5864416462
O 2.3773666124 -0.0111959756 0.8220331355
C 0.0587590629 -1.1356844472 0.5310474599
H -2.873406169 -1.0187183614 0.4640842678
H -2.9120621305 0.8280595176 0.5972097571
H -0.6691142164 0.0963364343 -2.9014505019
H -1.0648515097 0.0892111749 -2.2688830321
H -0.1113759627 1.8900004548 0.0066472651
H 0.1574720358 1.4351292556 1.7083329457
H 2.4775393964 -0.7816019586 -1.1606002176
H 2.4423792428 1.0528821309 -1.0203742683
H 0.2197374923 -1.6570045829 1.4777799671
H -0.0370116384 -1.8663909195 -0.2727754583
