16
0
C 0.8032075905 0.4998647109 -1.2643597766
O 2.0393997359 0.0961458458 -0.7353917069
C -0.7702218431 -0.0948847231 1.9072740959
C -0.573910144 -0.2765194777 0.6049744475
N -0.2164661602 0.7685057096 -0.2781627236
O 0.1584988711 1.9374140133 0.4155571626
C -0.7889533819 -1.5985549934 -0.0713151815
H 2.3535824516 0.791130572 -0.1511522722
H 0.4611955438 -0.3078945141 -1.9082399111
H 0.9018355426 1.4107997126 -1.8602122542
H -0.5945165532 0.8553120543 2.3876311208
H -1.1147107914 -0.9208479668 2.5133504425
H -0.5579272294 2.5531329751 0.2426174695
H -1.4474031601 -1.4971768293 -0.9370580116
H -1.2444821676 -2.2968812436 0.6274438611
H 0.1574576954 -2.0248418457 -0.4107627622
