14
0
C -1.3655574384 -1.0873490407 1.3308183498
C 0.0881078872 0.3071867448 -1.7106714745
C 0.4553678616 1.3681935434 -0.7021872298
N 1.4451125341 0.9665541187 0.2360525344
C 1.9836347243 -0.0862030543 0.4749676365
O 2.5856435163 -1.0102865318 0.8385773811
O 0.5710863415 -0.7873061822 -1.7288771342
H -1.8939709432 -1.6515573358 2.0972845784
H -0.6102314919 -1.720938173 0.8686798685
H -2.0781236794 -0.7603264007 0.5736324806
H -0.6774361543 0.6157570284 -2.4494004921
H -0.4644956755 1.6685317991 -0.1864004558
H 0.7923088315 2.2536744299 -1.2524053889
H -0.8881843141 -0.2217109458 1.7893203457
