18
0
C -2.1205513312 -0.9847493096 0.0564607441
C -1.5483249052 0.4113184401 0.2289053527
N -0.0851739166 0.3889579994 0.4211279028
C 0.3478007298 0.2018581068 1.6676918594
C 0.656659371 0.4935664942 -0.6723621373
C 2.126374715 0.318395687 -0.598803005
O 2.7066538494 0.1530496821 -1.8767019186
H -3.1978037896 -0.9231587283 -0.1058149699
H -1.9417982559 -1.5955623682 0.9412849223
H -1.6715567716 -1.4804406293 -0.8046370418
H -1.7486570488 1.0249711314 -0.6480422142
H -1.9811104467 0.9118854814 1.0941573452
H 1.4022175301 0.2221033358 1.8793449359
H -0.382301272 0.036047259 2.4408702732
H 0.1760750587 0.7970814698 -1.5892667
H 2.6312112135 1.1865426335 -0.1525535603
H 2.3550415747 -0.537249089 0.063639216
H 2.2878756958 -0.6041065962 -2.2910530047
