12
0
N -1.7710024583 0.1505426739 -0.689702249
C -0.5214478075 -0.0111940643 -0.1392560616
C 0.3293090609 0.6298312115 0.944357634
N 1.6363233693 0.9726395228 0.4282014247
C 1.7907589287 0.0756052423 -0.4546620548
N 0.7005364742 -0.843406701 -0.5711703561
C 0.0960957066 -0.8565037264 0.7961344852
H -1.7951260067 0.7624134232 -1.4897613556
H -2.2634060887 -0.7116558148 -0.8636817183
H -0.1073266091 1.2182175185 1.7397297703
H 2.6426740697 -0.0155501564 -1.1160145871
H -0.1581246391 -1.7148161293 1.3983330687
