13
0
C -2.2708991952 0.5978526104 0.1387991995
C -0.9853386751 -0.1344928443 0.1303553962
O 0.0386942803 0.4537816751 -0.3360968062
C 1.2909302887 -0.0148237799 -0.4368657921
N 1.5463984567 -1.3057219517 0.0099147018
C 2.2012067256 0.882014308 -1.0054479525
N 2.9949093414 1.5853508273 -1.4686933091
H -2.154897231 1.5814506262 -0.3139682768
H -3.036470706 0.0441913629 -0.41225937
H -2.6420447879 0.7226654244 1.160574472
H 1.8206637245 -1.9611569442 -0.7081031594
H -0.8587158227 -1.1450496177 0.5018586643
H 2.171733601 -1.3694266968 0.8004742321
