12
0
O 2.0180794421 0.8754373932 -0.0132438222
C 1.3901965045 -0.3729459833 -0.1749817575
C -0.0492061734 -0.2148479676 -0.6420080095
C -1.895532471 0.1806487994 0.7246129769
N -0.7712000457 0.5802694409 0.3310771759
H 1.4029453777 1.4299393264 0.4774990045
H 1.4061470274 -0.9474543483 0.7617253455
H 1.9630330543 -0.9302829567 -0.9186137398
H -0.5124674282 -1.1973985227 -0.8113751832
H -2.3635800185 -0.7415838126 0.3579006711
H -2.4450861621 0.7650136577 1.4601603997
H -0.0480761072 0.3389379735 -1.5852920615
