12
0
C -1.6950401244 -0.0635755982 -0.7011025829
C -1.1692974446 0.3704185705 0.660203306
C 0.2849702338 0.3351871069 0.9652481008
O 0.919460894 -0.0922139203 -0.13286432
C 2.2315917333 -0.1908652099 -0.0755942598
C 3.416019815 -0.3103205545 -0.1166437153
H -2.7801911852 0.0387293209 -0.7381800307
H -1.4479471079 -1.1051442975 -0.9098657662
H -1.2722627868 0.5422273308 -1.5032522776
H -1.6232483803 -0.1989115281 1.4822402414
H -1.4528197594 1.4040291209 0.9033061346
H 4.4744931125 -0.4094823417 -0.1294348302
