13
0
N -1.8136814198 0.9617363353 -0.2510149339
C -1.8834674362 -0.110512123 0.403410078
O -0.8990630911 -1.01637762 0.4445765217
C 0.250139667 -0.7647089677 -0.3555442859
C 1.1829307415 0.2223601865 0.3396755935
C 3.3801688354 0.3957935915 -1.0058392391
N 2.3974592164 0.3316226802 -0.3868462767
H -2.6679861138 1.4979964795 -0.1608320969
H -2.7204847663 -0.4541848249 1.0127937025
H -0.0474768347 -0.3787236876 -1.3312550066
H 0.7423602852 -1.7289358412 -0.4718886978
H 0.7123317998 1.2033240235 0.3974134315
H 1.4065111163 -0.1241392321 1.34996821
