8
0
O 0.1025721819 1.2094669664 -0.4638670803
C -0.6350557438 0.4413009751 0.4442490088
C -0.448053694 -0.8391373798 0.6744028721
C 1.0373832698 0.6179232727 -1.1224088028
N 1.8801322231 0.1210666375 -1.7278409204
H -1.3709658338 1.0757240994 0.9141939484
H 0.3128866573 -1.4167757037 0.1642029246
H -1.0770520605 -1.3352748675 1.3988560497
