16
0
C 0.1569834358 1.6569802859 0.2129268989
C 1.1942734593 0.594893385 0.080265952
C 1.0735143458 -0.6025577184 -0.7618001976
C 2.3420609826 0.1722784178 -1.2471309346
C 2.581490176 0.7385809258 -0.0206787525
C -2.3854370573 -1.6783783788 0.8611795413
N -2.123577808 -0.6872176616 1.5948130131
H 0.5460214394 2.5310235007 0.7348511758
H -0.7147641965 1.2635051784 0.7396709193
H -0.1662700804 1.9712129284 -0.7858055825
H 0.2274458848 -0.6887175847 -1.4423586028
H 1.343130186 -1.5446907021 -0.3013887622
H 3.3297760538 1.3862567927 0.407592225
H -2.2090925899 -1.6015372063 -0.2121127085
H -2.7847265246 -2.6296094574 1.2252886895
H -2.3310097066 -0.8868407054 2.5721731258
