11
0
N -2.0758769333 -0.0672374391 -0.2804242363
C -0.8254236343 -0.1723536508 -0.6632040668
C 1.2026391118 -0.6604774582 0.4655572416
N 1.8921413826 0.1621627859 -0.3023546121
N 1.0794158887 1.1996605712 -0.3990162392
C 0.1096485271 0.3714999096 0.3677797151
H -2.3819334595 0.3493941501 0.5961403144
H -2.8113022389 -0.3901965672 -0.887674374
H 1.3333856208 -1.7166098147 0.6323356093
H 2.7694197991 0.0770921278 -0.8029830837
H -0.2954840644 0.8459353853 1.2694837316
