8
0
N -1.3257628579 -0.28889136 0.191639224
C -0.2660507274 0.4834018211 -0.1405299797
O -0.3171117354 1.4877147606 -0.8201625954
C 1.0546572838 0.1178125933 0.4737205019
O 1.7769424414 -0.4602768075 -0.4365920693
H -2.2453600819 0.0250914054 -0.0671886543
H -1.2388825645 -0.9932983268 0.9015126744
H 2.6571042421 -0.625855086 -0.0773571014
