9
0
N -0.6909684869 -0.7976575713 0.2000485731
C 0.2744875364 0.3241649793 0.0974936913
C 1.5945681021 -0.0716515057 -0.1139809362
N 2.669413809 -0.4779784937 -0.2526177534
C -0.3037928256 1.5502334469 -0.2289162022
N -0.8603592543 2.5367293265 -0.4668809969
H -1.525140527 -0.4855214367 0.6958091683
H -0.9881213633 -1.1832344355 -0.702072576
H -0.2750479904 -1.5547163098 0.741129032
