12
0
C -1.0662905462 -0.8558998399 0.5970349922
C 0.0732209677 -0.8258029124 -0.3698736103
C 1.3399719545 -0.5905605424 -0.0532313286
O -0.2228430272 2.4636330708 -0.2214920407
H -1.804057546 -0.0902809947 0.3451257705
H -1.5769570398 -1.8212395722 0.5624074961
H -0.7277862501 -0.6798036267 1.6187728486
H -0.1776513208 -1.008447799 -1.4126614163
H 2.1201813573 -0.5841804519 -0.8049036286
H 0.2201786311 1.6083985407 -0.2184488026
H 1.6420006403 -0.4083105907 0.9733870056
H 0.0120811794 2.8638437184 -1.0593942857
