14
0
C 1.2054950772 -1.1798224279 -0.0231426617
C 0.6715181658 0.2108936232 -0.0296052139
O 1.6299872713 1.2215393061 -0.0806700701
C -0.5983259509 0.6156378044 -0.0577719131
O -0.9008857278 1.9456704112 -0.0668297167
C -1.8205952006 -0.2325595305 -0.1079491604
H 0.4108862978 -1.9214630612 0.0110363701
H 1.8465293146 -1.3493923004 0.8496673601
H 1.8109153403 -1.3655792366 -0.9145741144
H 2.3393739123 1.0176260688 0.5319483245
H -0.0646878286 2.4254555273 -0.0426730159
H -2.3824021341 -0.0225689793 -1.0209740922
H -2.4704820123 0.0052606336 0.7368517214
H -1.589530525 -1.2944708388 -0.0806658176
