8
0
O -0.769052932 1.311534909 0.1296491438
C -0.5917112338 -0.078431974 0.2178267486
C 1.4330445865 -1.138616051 -0.6449116675
C 0.8816869876 -0.451558424 0.2987734127
H -0.3824916693 1.6184598961 -0.6934933934
H -1.082160796 -0.3988577097 1.1366795148
H -1.0638752354 -0.6061953667 -0.6157987853
H 1.4772262924 -0.1032752797 1.1397620262
