15
0
C -1.1405717803 -0.0338487658 2.0454687786
C -0.0618784815 -0.3681862752 1.3516293956
C -0.8049756922 -0.1559755184 -2.2161630571
N 0.8550730763 0.5457696085 0.8370064103
C 1.9460550047 0.1839944244 0.1019777998
O 2.2458345572 -0.9486657792 -0.1793971035
H -1.8072845715 -0.8004318801 2.4117758241
H -1.4118522455 -0.1310478139 -1.3117788248
H -1.3908186623 0.9977719639 2.2660860677
H 0.1938132889 -1.3949681288 1.124091634
H 0.0626428237 -0.7935076845 -2.0510541935
H -0.4745328396 0.8532449309 -2.4607667413
H -1.3958533915 -0.5504349863 -3.041422196
H 0.6985307603 1.5270648451 0.9931362568
H 2.5412121534 1.0573500596 -0.2156130507
