14
0
C -1.9478805534 0.8462728699 -0.1939985707
C 0.8090044252 -2.5267980059 0.4956924918
O -0.7810143736 0.0961480887 -0.4171447209
C 0.3668523403 0.6892423789 0.1212832188
C 1.5071755714 -0.2859199816 -0.0040650728
O 1.2902091285 -1.398342409 0.8928000451
H -2.1375519378 0.9779504876 0.8783751146
H -2.7770474663 0.2973456066 -0.636602451
H -1.8837220792 1.8358818431 -0.664400084
H 0.6850837812 -2.4570026954 -0.6184216009
H 0.6249018765 1.6134565501 -0.4169496017
H 0.2164730028 0.9446818032 1.179590758
H 2.446769545 0.1767003722 0.2980202106
H 1.5811747392 -0.6709129084 -1.0246967369
