14
0
C 1.9033094975 -0.2114139223 -0.1891161247
N 2.3577081914 1.0240149973 0.3238747673
C -0.203428881 -0.7693355739 0.626583377
O 0.4650694223 -0.2112230641 -0.3623537739
N -1.526002856 -0.6524014265 0.3986640377
C -2.191055752 -0.0293047998 -0.6570462984
N -3.4525324647 -0.0379848638 -0.6860899763
H 2.3001981861 -0.3889514944 -1.1880989263
H 2.1222823811 -1.0566239195 0.4646525693
H 3.0163314056 1.5246581207 -0.243252598
H 2.5975391559 1.0273409707 1.2992992196
H -2.1325108599 -1.0634779236 1.0907993271
H -1.5298651438 0.4308685463 -1.3879773362
H -3.7966802824 0.453624353 -1.5039072641
