17
0
C -2.1560789408 -0.349172509 -0.5171142151
C -1.3498524488 0.9154405613 -0.5555963687
C -0.8748575249 -0.2583534277 0.2508754617
C 0.3231851317 -1.054971774 -0.201511198
C 1.6537455308 -0.4940022114 0.2712408186
C 1.9452324875 0.9334516965 0.5478861744
C 1.8204318352 -0.0344069244 1.6725782404
H -2.1665987469 -0.9695149195 -1.4049237967
H -3.0864715034 -0.3444284132 0.034627794
H -0.8133663432 1.1446423896 -1.4682737488
H -1.7338384739 1.7819928468 -0.0332790604
H 0.237692813 -2.0823212085 0.1653678954
H 0.3276044267 -1.1052157605 -1.2952396707
H 2.5144735731 -1.080553427 -0.0483042264
H 1.1486232709 1.6732345187 0.5389632733
H 2.9242082468 1.3470068872 0.3322852225
H -0.9741483336 -0.166677325 1.3285914044
