12
0
O 1.6707572306 1.0306337595 -0.4524610279
C 0.6016674521 0.5315803212 -0.470468319
C 0.2284960709 -0.9093832272 -0.3574324803
C -0.5026469562 -1.199209535 0.9559973757
C -0.5621942552 2.6308669448 -0.665964098
O -0.6061815011 1.3285363785 -0.6039090614
H -0.4188765222 -1.1516560595 -1.2033473898
H 1.1452272265 -1.4916028794 -0.4375610367
H -0.7529113804 -2.258207323 1.0117283901
H 0.124468477 -0.9545932756 1.8142865824
H -1.4261569532 -0.6253872071 1.0254546608
H 0.5161511112 2.9115161028 -0.5906055959
