14
0
C -2.1710127527 -0.0246962725 0.0428834693
C -0.8850829484 0.2305821002 0.2716650237
O -0.4476559011 1.1211598385 1.2029589755
C 0.2274586029 -0.4172358383 -0.4529535331
C 1.4846007837 0.3514149199 -0.7604366436
C 1.5145078651 -0.740306799 0.2576146762
H -2.4583739781 -0.7435174337 -0.7098234446
H -1.2043079585 1.5111738023 1.6456463216
H -2.960103031 0.472391143 0.5949639823
H -0.1030923524 -1.1251745009 -1.2011754983
H 1.5376512549 1.3697383933 -0.4006839852
H 1.9480430068 0.1787080381 -1.7225821788
H 1.9977563142 -1.6740604947 0.0030785043
H 1.5888950944 -0.4519498962 1.2971443306
