19
0
C 1.9679166851 0.0295852857 0.5603998003
C 0.867309593 -0.1151279124 -0.4646384879
C -0.1547888997 -1.2180580316 -0.1964665759
O -0.3892505403 -1.3019627357 1.1972026593
C -1.3688517793 -0.6831783381 -0.9489730761
C -1.2702561464 0.8138921597 -0.675439265
O 0.1157684037 1.0952204218 -0.5451186181
H 2.6108418506 0.8692083211 0.2949679244
H 1.5479238319 0.2022287675 1.5497542508
H 2.5768899542 -0.8761869098 0.5928492583
H 1.3105018206 -0.311524959 -1.4515419612
H -0.1220263468 3.0530635884 2.031033553
H 0.1986109212 -2.1794639898 -0.5859156377
H -1.0847243821 -1.9425725219 1.3524696831
H -2.3075506053 -1.1213461335 -0.6061236304
H -1.2629997181 -0.8931970611 -2.0158770876
H -1.7803885915 1.079455799 0.2565434191
H -1.6827031775 1.4226141497 -1.4829647427
H 0.0409951268 2.5837501002 1.4730035341
