11
0
C -1.6719117509 -0.4427855636 1.0913809172
C -1.2347698587 0.7096565262 0.3251735155
N -0.8510575372 1.5982978956 -0.289994348
O 1.301044174 -0.9803230812 -0.2311380327
C 2.0205923709 -0.3181000297 -0.9293295951
O 1.7761507179 0.904377605 -1.3677557137
H -1.8270474835 -0.163974723 2.132710667
H -0.8897777811 -1.1997016621 1.0238249363
H -2.6004881582 -0.8355290824 0.6793353511
H 0.9046916157 1.2118112123 -1.0426143163
H 2.9967626909 -0.6653670973 -1.2955293811
