13
0
C 1.7270387731 -0.0999162261 0.2590342157
C 0.2419283427 -0.0862562464 0.0009677443
C -0.3298473683 -1.2492441187 -0.7160561403
N -1.5496228954 -1.3428108937 -1.0373359374
C -1.2839954523 1.8786622356 0.7693647728
C -0.5247520521 0.9007520714 0.3865514753
H 2.0401605529 0.7938278664 0.7951774972
H 2.008932998 -0.9730092804 0.8533544527
H 2.282573895 -0.1477785046 -0.6811782383
H 0.40493986 -2.0311538238 -0.9491047256
H -1.7272582377 -2.2198842637 -1.5195059806
H -1.7628702857 1.8680933599 1.7419846325
H -1.4758181302 2.723820824 0.1179462318
