10
0
O -0.8879311953 -0.8236637136 0.5372704985
C -0.6013628043 0.0630085729 -0.5873422159
C -0.0531329707 1.3244760191 0.0505868948
O 0.9558864526 0.5365762407 0.7474289967
C 0.4404739719 -0.6194457312 0.1611654517
O 1.2749284989 -1.6590979616 0.0452794226
H 0.7911480169 -2.4601282956 0.2630002537
H -1.120269475 -0.1037713863 -1.5185258286
H -0.7073327605 1.846504558 0.7483067452
H 0.4193992654 2.0087916975 -0.6542222188
