12
0
O -1.8363232799 0.8659538382 2.0571320219
C 0.1194610186 -0.7448919124 -1.911076059
C 0.665902881 -1.5662571606 -1.0998470423
C 0.0557760679 -0.3409041993 -0.453864971
C 0.9638814793 0.7267197589 0.0122778131
O 0.7303680781 1.4883119961 0.9196057755
H -1.8388800067 0.9178866805 3.0128161885
H -0.2006106183 -0.457476386 -2.8958785105
H 1.1563112178 -2.497660511 -0.8833047887
H -0.9746498717 1.2113471955 1.7798171191
H -0.8782175761 -0.4161133947 0.0990812704
H 1.9230696099 0.7961620947 -0.5437428171
