12
0
N 2.1873025653 0.8727330583 -0.2484125441
C 1.0092314059 0.4413329896 -0.1193969014
C 0.6923262801 -1.0329182784 0.131806854
N -0.7454042139 -0.9728410417 0.3359217181
C -1.121751375 0.294477548 0.0571036269
O -2.4178409458 0.5629228638 0.0547348933
N -0.1934577009 1.1614494562 -0.1696349908
H 1.2195507412 -1.4095213265 1.0077061673
H 2.1690396529 1.8778229173 -0.4053928853
H 0.961923497 -1.6393779888 -0.7355224448
H -1.3704218857 -1.7468901139 0.2038298871
H -2.5123680214 1.4997549158 -0.1520713805
