12
0
O 2.3215217406 0.773880635 -0.3175195865
C 1.0671316564 0.3524115613 -0.1343031125
C 0.475908311 -0.8251794489 -0.3390278415
C -0.9468014766 -0.710633646 0.1439868275
C -1.0609461013 0.8118296215 0.3314052068
O 0.2845753891 1.324911595 0.3650110466
H 0.9513265585 -1.7188433196 -0.7099654536
H 2.8566141074 0.0314045091 -0.6058291446
H -1.6866378135 -1.0698411345 -0.5739767527
H -1.1110257075 -1.2521343351 1.0817156641
H -1.5517285836 1.1146839594 1.2546807778
H -1.5685440806 1.280764003 -0.5154856316
