9
0
N -0.4971378851 0.0086520719 -0.3269120882
C 0.7691871423 0.2090606968 0.5289107111
C 1.648392852 -0.8332996558 0.1770377523
N 2.3651915502 -1.6609144873 -0.2022167748
C -1.3773938582 1.0784750662 -0.198451761
N -2.1247384683 1.9351432947 -0.0787190835
H -1.0146388965 -0.8653016508 -0.1519066324
H -0.1721748399 -0.0301393708 -1.2965444923
H 0.4600754035 0.254617035 1.5665113687
