13
0
C -1.4296400023 -0.0848019424 -0.4991687606
N -0.0123984487 0.0268456905 -0.1598463494
C 0.6781092047 1.0215649294 0.7123784177
C 1.8823235176 0.2112178007 0.1064304264
O 0.857954912 0.3330559742 -1.2399640779
C 0.9291692004 -1.0186364552 0.3368814186
H -1.5434075226 -0.8709086193 -1.2434028671
H -1.9878353431 -0.3287687508 0.4037192377
H -1.7607768813 0.8681780305 -0.9077583815
H 0.5293083904 2.0382070822 0.3548631192
H 0.4618736523 0.8965172763 1.7755312037
H 0.7350629522 -1.3285292454 1.3659659378
H 1.0092243683 -1.8500347706 -0.3600643244
