15
0
C 1.8969449465 -0.4796421088 -0.0197353909
C 0.5945658961 -0.4314027818 -0.2301582392
C -0.5977103498 -1.1224537078 0.4002432145
C -1.4948094462 -0.0105081512 -0.2017744494
C -0.3014105983 0.4478758278 -1.0791019978
H 0.3267299888 2.3438149594 2.0662489579
H 2.3254524626 -1.1675635613 0.7003461302
H 2.57859 0.1677954333 -0.5595485084
H 0.6268886639 1.7381301185 1.7499827243
H -0.7887201064 -2.1018111606 -0.0448139237
H -0.5886170874 -1.2296655541 1.4856023598
H -1.7710629452 0.7393817536 0.5387683401
H -2.3924926271 -0.3358958014 -0.7258037201
H -0.070845551 1.5138089138 -1.0965396986
H -0.3756642464 0.0901338207 -2.1086887987
