14
0
C -0.0250131543 -1.0793795942 0.2821057863
C 0.8762961225 0.156100983 -0.2946491931
C -0.5767337525 0.9009425463 -0.2082784693
C -0.7959016215 0.0096096113 0.9949066195
O 0.3025449498 0.5403278395 1.9002400258
C 1.2474088917 0.5891407997 1.0213084262
H -0.5676057422 -1.5327100544 -0.5453083731
H 0.4583438552 -1.8453730704 0.8912017564
H 0.433030938 -0.5362450661 -2.7484466484
H -1.1682044733 0.6178345497 -1.0771100328
H -0.6102210006 1.9812932464 -0.0559857898
H -1.6814777038 -0.079969261 1.625750151
H -0.0357238502 -0.7582173187 -3.2919049384
H 2.1995165412 0.957476789 1.4022046797
