18
0
C -2.188610626 -0.3451291474 0.1505161565
C -0.977702543 0.471432438 -0.2142912449
C -0.4896596377 1.5556806803 0.6880026057
C 1.5979357533 0.3062309887 -0.1732786075
C 2.6474748481 -0.4497853191 0.1183131589
C 0.3117775553 0.2841762061 0.5442991586
H -2.2454095573 -0.4971831655 1.2309308261
H -2.1576761385 -1.3278662999 -0.3244049023
H -3.1087625529 0.1528243685 -0.163482629
H -0.8575261588 0.6561770547 -1.2769591003
H -1.0113819751 1.7113159552 1.6241866292
H -0.0812139986 2.4562834052 0.2470696992
H 1.6630364601 1.0015021318 -1.0087575303
H 2.6263269438 -1.153759731 0.9434785783
H 0.4502573016 -1.9544855176 -1.6725664527
H 3.5643728204 -0.3899052791 -0.4542367911
H 0.0073469591 -2.4158139521 -2.0569288607
H 0.2665925461 -0.4034528168 1.382530306
