11
0
O -1.5569580339 -0.0561665282 0.2739071576
C -2.1769732841 -0.0635983214 -0.8607351474
C -0.2154723752 -0.5795452143 0.2604797956
C 0.748482077 0.5806471352 0.0549625886
C 2.134345638 0.1309673311 0.1278840252
N 3.2156185687 -0.2445836017 0.1922420983
H -3.1592766489 0.3909801111 -0.6047090206
H -0.1385677262 -1.3080644982 -0.5457360121
H -0.0649576204 -1.0584481801 1.2269685908
H 0.5839165755 1.3469757656 0.8150799176
H 0.5702828298 1.0308840008 -0.9243479937
