13
0
C 1.5247479805 -0.1493509688 -0.4134213228
N 0.754436864 1.0763875882 -0.4480830053
C -0.1520440478 1.3951781376 0.4921100441
O -0.4028643245 0.7289086158 1.476100185
C -1.7331892141 -1.4694703927 0.3694217062
O -1.5821629301 -1.4246209691 -0.8200745815
H 2.4856069816 0.0106845702 -0.9011348619
H 1.697942681 -0.4205294151 0.6265449728
H 0.9974923966 -0.9677878795 -0.9073798668
H 0.8059898118 1.6619431222 -1.261889506
H -2.6300545344 -1.0507472131 0.8592982932
H -0.9888869639 -1.9328169482 1.0396190127
H -0.6584237004 2.3542027526 0.2872479304
