9
0
C 0.6935136572 -1.0858694628 0.1094243368
C 1.0222057433 0.1981525704 -0.1020186488
C 0.0618598981 1.3088132641 -0.0964901699
C -0.9700808774 0.3109131882 0.2058930144
C -0.7377315864 -1.0049419941 0.3305824367
H 1.3792534978 -1.9216180754 0.1051683079
H 0.2259582394 2.0326297349 0.697125666
H -0.059915389 1.7870197073 -1.064901486
H -1.4820511829 -1.7585939326 0.5471445429
