12
0
N 0.2220325745 1.0747475392 0.4459061178
C 0.7895191735 -0.3412921744 0.7965087802
C -1.0470797712 0.4351825683 -0.0611400773
C -0.4981199757 -0.9654013224 0.2394482389
O 0.2107757209 -1.5736779567 -0.8517869524
C 1.3362319747 -0.8171842839 -0.5042193187
O 2.2866700375 -0.6213742638 -1.1962735152
H 0.7659642765 1.5868935944 -0.2452247651
H 0.1015832528 1.6633808633 1.2617217958
H -1.8998575627 0.7394035258 0.5433271651
H -1.2275542589 0.6641644608 -1.1099040299
H -1.1391484419 -1.6734205508 0.7588635609
