15
0
C 0.3620234785 1.5677796055 -0.5372305292
C 0.2934775362 0.1102634159 -0.1775832164
O 1.9719360659 -1.0527932928 2.5572136551
C -0.8546451124 -0.7059430057 -0.7268918265
N -2.1431668708 -0.1106439552 -0.3890054914
C 1.1939522313 -0.4525901016 0.5768142952
N 2.1136061767 -1.0240820969 1.1623597707
H 1.2686707819 2.0320561301 -0.1538163222
H -0.4967647356 2.09885674 -0.1200734991
H 0.3418170638 1.692468575 -1.6241284731
H 2.7612477557 -1.5255031301 2.8319088852
H -0.8161942179 -1.7071284329 -0.2979827534
H -0.7007081911 -0.8137579911 -1.8119873634
H -2.887705056 -0.7774752853 -0.5347485208
H -2.3424699065 0.6887668255 -0.9749426107
