14
0
O 0.9598434025 0.3094069363 0.1150004639
C 2.5725455904 -0.1399380714 -0.1459120243
C 0.1016340506 -0.8197507008 -0.0556169665
C -1.291584697 -0.3521599195 -0.3768581511
C -1.8452093991 0.887371186 0.1523479941
O -1.3511071133 0.8113238541 -1.1852901557
H 0.7922165112 0.8880072831 -0.6440633941
H 3.0083224428 0.784367418 0.2699736981
H 2.6374353054 -0.8459102063 0.700920809
H 0.5138993962 -1.4335079165 -0.8616550804
H 0.1287626359 -1.3831848791 0.8767312783
H -1.9745839276 -1.1467442339 -0.6669451264
H -1.2523406323 1.495536449 0.8277452103
H -2.9214075658 0.9986108013 0.2335214447
