16
0
O -1.5941154083 0.4716269588 -1.0733176477
C -0.7116237801 -0.5998575351 -1.2277440496
C -0.3627400646 -1.4525138395 -0.0452400525
C 0.6334595559 -0.4626372429 -0.5983260206
C 1.0590256907 0.7955916186 0.1420126009
C 0.3103465866 1.1229661503 1.4274905566
H -2.4810027939 0.1220522936 -0.9705775285
H -0.7602299611 -1.0790644645 -2.2022852538
H -0.8469241436 -1.1949419333 0.8881609579
H -0.192944615 -2.5111477824 -0.1933037596
H 1.4330128929 -0.9030189152 -1.183898064
H 0.4310834176 0.3308369462 2.1698360894
H 2.1224343601 0.6937403288 0.3756765462
H 0.9788355034 1.6420393356 -0.5462951441
H 0.7018963271 2.0438913516 1.8636932673
H -0.7548395677 1.2660617296 1.244793502
