10
0
N 1.4021382062 -0.52926411 0.8299053019
C 0.2167395777 -0.0421534854 0.2862444949
C -0.1541474346 1.120132991 -0.2614046751
O -1.5011741286 1.0559262339 -0.52936851
C -2.0167187442 -0.1395389148 -0.1845580133
N -0.9527610667 -0.7939012074 0.3185566206
H 2.1114933108 0.1815030806 0.9108437156
H 1.7703026788 -1.3288614989 0.3345621934
H 0.3711351865 2.02609966 -0.5040951134
H -1.0257465858 -1.714416749 0.7144479851
