15
0
C 1.4835798335 0.753028067 -0.1392432792
C 0.1888419954 -0.0182626236 -0.0506179405
O 0.1840029261 -0.918938221 1.107897647
C -1.0881580567 0.7102041842 0.3297157457
C -1.6421728899 -0.5685205449 0.9521804335
O -0.2459102699 -0.3443200135 -2.3782599953
C -0.0551750289 -0.8416914319 -1.3088458573
H 1.4327233335 1.4320118389 -0.9910750881
H 1.6406050243 1.3287689261 0.7719980501
H 2.3328563826 0.0811618493 -0.2824643768
H 0.3298113117 -1.8326852171 0.8356903387
H -0.8818825464 1.5580178227 0.9931229914
H -1.6460299301 1.0532072769 -0.5421661297
H -1.8318025161 -0.4286938474 2.0244627578
H -0.007415569 -1.9464180657 -1.1825852973
