13
0
C -1.1698418618 -0.6045135747 0.0860845333
C 0.2672753737 -0.147678095 0.2384993554
C 1.37841634 -0.9120964056 -0.48765717
O 1.6644064309 0.320671671 -1.2024181015
C 0.7018310449 1.031362659 -0.639269224
H -1.8503015543 0.1653993497 0.4511138372
H -1.35402897 -1.5206543049 0.6501777026
H -1.4134639573 -0.7959597188 -0.9610998897
H 0.501489684 0.0666077443 1.2849253963
H 1.0641420891 -1.6911128107 -1.1833638239
H 2.2447571733 -1.2426168808 0.0856483392
H -1.2646011769 3.0496112557 1.3463148543
H -0.7905126154 2.8623781108 0.7993281911
