9
0
O -2.1912586239 0.1968017746 -0.1511764468
C -0.9883991691 0.1551240442 -0.0534367828
N -0.2214550967 -0.9556201208 0.2634627764
N 1.1175058627 -0.6541779782 0.0227375184
N 1.2294614234 0.683589786 -0.1322973144
C 0.0494758941 1.1834874548 -0.2320532891
H -0.5354465665 -1.8796165773 0.0114026645
H 1.7502965905 -1.0004307654 0.732444895
H -0.1165463144 2.2297513819 -0.4342940214
