14
0
C -2.4821530905 0.3144774154 0.1388120146
O -1.5738574666 -0.7479845617 0.2472946595
C -0.249526958 -0.3374188959 0.095276972
C 0.6573722577 -1.5230621778 0.210154783
C 2.4395589193 0.0946378215 -0.1405102929
O 1.9163918506 -1.2337032887 0.0869589731
H -2.3075566827 1.0769535349 0.910492345
H -2.4225988623 0.7995706872 -0.8453930508
H -3.4814315861 -0.0978553553 0.2686800303
H 0.0164625111 0.4156400553 0.8616624907
H -0.1031081134 0.1488691348 -0.888458707
H 2.0545490257 0.5021516437 -1.0752417465
H 2.1846455457 0.7534983063 0.6895332641
H 3.5179646494 -0.0204163198 -0.2037177353
