11
0
N -2.1333709055 0.1122859341 0.1739856741
C -0.7619949735 -0.0068472889 0.0692852057
O -0.3492246222 0.5132957704 -1.1090426921
C 0.0527931426 -0.5160196975 1.0003686944
C 2.8613012316 0.5769799618 -1.4782066121
O 3.970692365 0.6709258227 -1.6088881351
H -2.5583602861 -0.4787542306 0.8664399005
H -2.6122388577 0.1045875263 -0.7113638422
H -0.3441941606 -0.9230451892 1.9182635927
H 1.1245123582 -0.5066989216 0.8653169543
H 0.610711708 0.4552493125 -1.16451974
