13
0
O -0.8194597468 -1.7679588836 -2.1919306955
C -0.3547093934 -1.0379464548 -1.3738003272
C -0.1533367368 1.0310420218 1.6381746855
C 0.0213619726 0.3095400368 0.545723835
C 1.081602606 0.5437048738 -0.5038631524
O 0.6905760503 -0.2235792075 -1.6421754017
C -0.7823401784 -0.8613448375 0.0703392776
H -0.9384650445 0.8032952403 2.3485258184
H 0.4873130536 1.8755621663 1.8645566566
H 1.1574608931 1.5897236367 -0.8023407324
H 2.065701445 0.1969597878 -0.1768302278
H -0.5413992072 -1.7822267774 0.6081488337
H -1.8607097135 -0.7202756029 0.1264454303
