14
0
C -1.7492274457 0.2357951903 -0.4860588242
C -0.6968204411 -0.5996202043 0.2294913655
O -0.3288307366 -1.6493565156 -0.6374821306
C 0.4547769718 0.2467479003 0.667383815
C 1.6957970932 0.2573734539 0.1241522045
C 2.4428433593 1.4096682985 0.4618825196
H -1.3293928467 0.6463619897 -1.4051527173
H -2.6026797928 -0.3925114833 -0.7391356824
H -2.0881505524 1.0589709352 0.1436432685
H -1.1469155468 -1.009632361 1.1474678366
H 0.2724673199 -2.2400180584 -0.1792869648
H 1.9452990349 -0.4611782449 -0.6572283643
H 0.2588977109 0.9651513148 1.4588211204
H 3.1216818722 1.6435567847 -0.3790104469
