12
0
C -1.6299018357 -0.2617954418 0.3513278249
C -0.2575399268 0.0048938474 -0.1562552697
C 0.6743532393 1.1988770089 0.1123135949
C 1.7627774329 0.4334829412 0.0423194195
C 0.9365011512 -0.8174410105 -0.2477419226
O 0.1470647101 -0.5465097303 -1.4175225695
H -2.353901324 0.3932355217 -0.1381110524
H -1.6806273072 -0.0816464427 1.4262428059
H -1.9113791825 -1.2953110796 0.1500911453
H 0.5044723647 2.265227161 0.1780591627
H 2.8255534953 0.6312241354 0.0330371959
H 1.0970051829 -1.8505969108 0.0276606651
