13
0
C 1.3819268119 0.6044085581 -0.142607812
C 0.2439970132 -0.400344929 -0.2075903189
C -0.6989994734 -0.3193056115 1.0765863006
C -0.8308831508 -0.1627424423 -1.3181273774
C -1.677982396 0.4932405268 -0.5447062232
N -1.6757857874 0.768500003 0.6626503522
H 1.9624716555 0.5876229591 -1.0656367864
H 2.0544731353 0.3793857896 0.6889368394
H 0.9917724499 1.6146296971 -0.000564071
H 0.6509807005 -1.4066567681 -0.3480642324
H -0.1891989279 0.0142053067 1.9822180255
H -1.2046480799 -1.2687722157 1.2705782425
H -1.0115099507 -0.762542874 -2.1913799388
