16
0
C -2.4293594259 -0.2390519037 -0.0404402047
C -1.0026033774 0.1624798336 0.0381095751
C -0.4057272509 1.4984951784 0.3365766846
C 1.0993194462 1.3522669713 0.3045503087
C 1.2780173882 0.0503764327 0.0090344353
C 2.499646236 -0.7863020636 -0.183661034
N -0.0032266225 -0.6317453001 -0.1440840761
H -2.9074663551 -0.1064136841 0.9326927044
H -2.9613046986 0.4011341896 -0.7465035908
H -2.5556118082 -1.2775659094 -0.3478500684
H -0.771384284 1.8662097187 1.3027772126
H -0.7605306305 2.2327962529 -0.3971066323
H 2.5546785379 -1.2293295516 -1.1840521994
H 3.3657860759 -0.1406557861 -0.0554139054
H 2.5753998896 -1.5996609958 0.5462466947
H -0.1145931205 -1.6128263828 -0.3674919043
