13
0
O 3.3465768197 1.1283068715 0.1823703718
C 2.7241394776 0.5350952736 1.0230586655
C 1.3336999912 0.1626085447 0.8792271424
C 0.1786267709 -0.1609997214 0.7992478566
C -1.220409892 -0.5172083024 0.6044624076
C -1.6169809524 -0.4491165941 -0.8744798422
O -1.4706157026 0.8409697107 -1.4094854722
H -0.5379987037 1.0732775629 -1.4036810633
H 3.1886856914 0.2307165238 1.9776597933
H -1.0371089901 -1.186663982 -1.4421829942
H -1.8413437043 0.1747187143 1.1794293643
H -1.4003951777 -1.5222030868 0.9957847608
H -2.672913628 -0.7053235148 -0.9702059905
