11
0
C -1.5939502376 -0.009978177 -0.3875246298
C -0.1487601453 -0.1314787971 -0.3339720232
C -0.7892306366 0.3686983164 0.8782253634
O 2.5842559185 0.7918347422 -0.0073892926
C 2.1392503672 -0.2680355791 -0.3473075173
N 0.8909508008 -0.4542760166 -0.9519215561
H -0.8646233909 -0.2882047059 1.7365688227
H -2.1872886606 -0.915804659 -0.3497161306
H -2.0196859 0.7914580447 -0.9795847997
H -0.6717507735 1.419021503 1.1151648422
H 2.7183276581 -1.2053016716 -0.2855520791
