16
0
C -1.9390187574 0.3594952013 0.3947187186
C -0.9172779408 -0.6371113206 -0.1195193562
N 0.2719184978 0.0361140212 -0.6128635334
C 1.6907172115 1.3519448973 1.448682082
O 1.3056521797 0.5903432645 2.2306536502
O 2.1174025235 2.1447910527 0.7221825217
C 1.2669781828 -0.8732331192 -1.1477817498
H -2.2524840223 1.0458234205 -0.3964904777
H -2.8301036434 -0.1515190055 0.762113522
H -1.5220189492 0.9504438314 1.2115516808
H -0.607651687 -1.3001111855 0.6945074396
H -1.3745033553 -1.2803505055 -0.8900495425
H 0.0136328806 0.7169312564 -1.3152948895
H 2.1089028706 -0.3061702183 -1.5470726408
H 1.6444516983 -1.5105274006 -0.3440170697
H 0.8841933106 -1.53237219 -1.9418303552
