12
0
O -0.2086280783 1.1039553003 -1.7354175285
C 0.3135042962 1.5963880914 -0.7593841579
C 0.0697061512 -0.230035652 0.9665601416
C -0.428390743 -1.402740774 0.1727796755
O 0.0100271641 -1.5189839796 -1.1432610821
C 0.4121980822 1.0043976861 0.5820137795
H -0.1982885055 -0.6909671738 -1.6039523394
H 0.7388624765 2.6140496872 -0.8376517343
H 0.143371131 -0.4317009932 2.0332388731
H -0.1068664545 -2.3108397617 0.6889219141
H -1.530340626 -1.3874673442 0.2485713182
H 0.7728401061 1.6918089133 1.3403791402
