13
0
O 1.4265273462 -1.7083990725 0.4785456954
C 1.4226885789 -0.8037207292 -0.2961756594
N 1.2049893878 0.554932532 0.1157501571
C -0.350865046 1.0681586757 0.057202021
C -1.2267134603 0.1114661382 0.8208181718
C -1.2497548463 0.0853637702 -0.678052661
H 1.4959334185 -0.9109218362 -1.3875119782
H 1.4755915942 0.6890444886 1.0853596816
H 1.6853589955 1.220795533 -0.4770695668
H -0.8291235779 -0.7848082256 1.2908973297
H -2.0400526535 0.56386766 1.3763136464
H -2.0675160785 0.5398319538 -1.2244571866
H -0.9132176584 -0.844269888 -1.1262916508
