15
0
C -2.2908208449 -0.2176010107 0.0011170376
N -1.0195833757 -0.0401033343 -0.6466809625
C 0.1499090248 0.0120891672 -0.0818666177
N 0.3227746607 -0.096040013 1.2289815454
C 1.2573146736 0.2109852995 -1.1220415577
O 0.7821476397 0.2821499572 -2.2919963544
C 2.5312489977 0.2795823421 -0.6614069383
H -3.0765498152 -0.2058188678 -0.7498849228
H -2.4894344612 0.5890627432 0.7128597047
H -2.3369829995 -1.1758963672 0.52668897
H -0.8500732299 0.0731960253 -1.6696395951
H -0.4420082305 -0.2265081364 1.8657242904
H 1.2524187125 -0.0448358073 1.6018935942
H 3.3478472171 0.421400362 -1.354626133
H 2.7842470307 0.19795464 0.3871849392
