13
0
C -1.4802725289 -1.9217764558 0.5094100834
C -0.7125038623 -0.6418992021 0.4767349977
C 1.6280260186 1.2325487336 -1.3287744229
O -1.0504527436 0.0762043944 1.5022476403
C 1.0709258237 1.7970679401 -0.1118577224
N 0.6440565315 2.2618194304 0.8473681131
H -2.1338468563 -2.0463220346 1.3781810264
H -2.0648766716 -1.970449387 -0.4144590947
H -0.7664673548 -2.7471560773 0.4425327837
H 2.3501198715 1.9241811711 -1.7625793034
H 0.8231423705 1.040321923 -2.035671792
H 2.1101821046 0.2856987509 -1.0931712014
H -0.550873703 0.9192478132 1.4743638922
