14
0
C 1.1369547527 -0.9353097008 0.4638926416
C 0.0932518294 0.0870457478 0.1025871525
C -0.5970162677 0.024072206 -1.2421962101
C -1.3595049604 -0.3198343391 -0.0148223139
C 0.3107324565 1.4554600409 0.623053366
O 1.2453904914 1.7915614575 1.2989002408
H 1.2136254149 -1.0431908543 1.5467766751
H 0.8890426179 -1.9081015377 0.0362176758
H 2.1173379868 -0.6333039782 0.0930471585
H -0.4768083461 2.1898935801 0.3409470234
H -0.8263148006 0.9565744628 -1.7430463681
H -0.2838532228 -0.7748008326 -1.901089196
H -2.1141186052 0.3760681317 0.330392668
H -1.5791163468 -1.359785384 0.1870334864
