13
0
C -1.2630479691 1.1051429347 0.0289696271
C -0.721557524 -1.3263253527 -0.2164795267
C -0.8935693202 -0.1222044849 -0.7414240472
C 2.2507893714 -0.0712114796 0.5165666047
O 3.0793908158 -0.9175289694 0.6832598953
H -1.3860895713 0.8891630594 1.0913202118
H -0.4989520683 1.8804553957 -0.0812501566
H -2.1969086579 1.5329689287 -0.3439291011
H -0.4481676236 -2.1775499846 -0.8276714945
H -0.8525410939 -1.5060863065 0.8460258484
H -0.7567135069 0.0063366605 -1.8128897221
H 2.143338157 0.4644425788 -0.4459274967
H 1.5464979909 0.2274650197 1.3163153576
