15
0
O -0.424833315 2.8074741765 -0.4012242547
C 0.0377838249 1.5481308218 -0.2429418727
C -1.3584311325 1.751673184 -0.0182816402
C -0.65809609 -2.1443540743 0.0987460727
C 0.1229101397 -1.2064476883 0.6107043952
C 1.300493758 -0.5948038521 -0.0849143053
C 1.1688714659 0.8852603917 -0.3306025768
H -2.0769719302 1.4857389976 -0.7862143984
H -1.7433660827 1.836589109 0.9926404506
H -1.4918781364 -2.5550237651 0.6552215095
H -0.4897382225 -2.5395274436 -0.8979468846
H -0.0830868982 -0.8315788701 1.6110037952
H 1.4777035978 -1.1145765668 -1.0321743582
H 2.1948669114 -0.7634044232 0.5253190027
H 2.0569621101 1.4389780029 -0.6148919351
