14
0
C -1.4410365666 -1.4076225009 -0.1604385217
C -0.5583437275 0.7799053397 -1.0808605154
C -0.5595630993 -0.4220624934 -0.1608747396
C 0.649679121 -0.2714131392 0.7298350693
C 1.4399115264 0.8164615537 0.0061356618
O 0.4566837051 1.6378333212 -0.5963277241
H -2.2844970284 -1.414408533 -0.8415882805
H -1.3549399568 -2.2439680837 0.5229693266
H -1.5024471794 1.326307367 -1.0770181172
H -0.3398353091 0.4706628906 -2.1129869326
H 1.2024243337 -1.2026128357 0.8533765749
H 0.3424136827 0.0806392526 1.7178433246
H 2.0445492013 1.4417826757 0.6618812663
H 2.0932402967 0.3767851855 -0.7609033925
