8
0
O 1.4284511477 1.2586605122 -0.5210917057
C -1.1260297764 0.4215916122 0.1303627598
C -0.9654668236 -0.8064636707 -0.1464383433
N 0.1154252281 -0.2082938985 0.6821139572
C 1.2925688332 0.202620828 0.0307241597
H -1.6324855346 1.3643012984 0.1898620532
H -1.2178667462 -1.7784039177 -0.5260389187
H 2.1169746718 -0.5189987638 0.1588280377
