11
0
C -1.9588034529 0.2440168546 0.1926446629
C -0.7458482689 -0.2651657834 0.0305087628
O -0.3368390519 -1.0885454566 -0.9600807207
O 0.2428758506 -0.0379050984 0.9294009966
C 1.5024709667 0.1996893318 0.4733466748
N 2.4234193779 0.3357566206 1.3085678161
H -2.1522507314 0.9093399338 1.0186162433
H -1.0488731181 -1.1938965584 -1.5952634105
H -2.7659867995 -0.0183554535 -0.4759686582
H 1.5788151021 0.2586820753 -0.6129547126
H 3.2985351253 0.5262195343 0.8330963455
