14
0
C 1.2300755918 -1.1768609828 0.1282339013
C 0.4153072585 0.0808172429 0.0318354418
C 1.1081766151 1.3945455781 -0.0182533866
O 0.2337176557 0.5746676565 -1.3423288216
C -0.925492569 -0.0207581721 0.7351396882
O -0.9677168752 -0.4151652944 1.8809332326
N -2.0109134206 0.3808106532 0.0370655196
H 2.1993983336 -1.0294327742 -0.3506132525
H 1.3970291449 -1.3941919609 1.1825635298
H 0.7098173453 -2.0283575731 -0.3164059993
H 0.3447545587 2.1573633657 0.2027703002
H 0.988846587 0.2869352812 -1.8663383702
H -2.8959458068 0.4048383297 0.5106599555
H -1.9346914189 0.7160816505 -0.9047607387
