13
0
C -2.2562059252 -0.2881299781 0.9105149983
N -1.6303908822 0.6464938666 0.3499111044
C -0.1913797088 0.6968559182 0.5335299645
C 0.5023689643 0.6614916521 -0.8019617965
C 1.4200615021 -0.2059015564 -1.1108093391
C 2.3390681631 -1.0768103887 -1.407098451
H -1.7667855642 -1.0567393707 1.5225323424
H 2.0825215452 -2.0241519699 -1.8670983678
H -3.3362411567 -0.3539737676 0.7912187614
H 0.0363193945 1.6485354909 1.0242851093
H 0.1825203732 -0.1140578708 1.1724552163
H 0.1995521219 1.404174915 -1.5337757767
H 3.385625173 -0.8770909406 -1.2077667656
