14
0
C 0.9757383065 0.5150246306 0.2411471016
C 1.1629500677 -0.8242622425 0.9433405882
C -0.8669442843 -0.4171569787 -1.3522077253
O -2.0518188744 -0.4674002516 -0.7664630345
C -1.7162027534 0.4321171953 0.2228829787
C -0.3655159459 0.6459628023 -0.4572779361
H 1.0602603615 1.330267689 0.9634689625
H 1.7702408359 0.6726261115 -0.494276987
H 2.0746899252 -0.8266088782 1.542410865
H 1.2395681433 -1.6433571459 0.2257784212
H -0.4654053525 -1.2863940446 -1.8565740041
H 0.3187443824 -1.0296882621 1.6039923667
H -2.4750390552 1.1902057363 0.4104879637
H -0.4677767565 1.6168806384 -0.9614885604
