10
0
N 1.7734159714 -0.2952750239 -0.6705093476
C 0.5559091053 -0.1585722637 -0.3258196489
C -0.5665464244 -1.0560849835 -0.3217761322
O -1.6154313667 -0.431433044 0.1282874897
N -1.4642382415 0.8207535814 0.4732083945
C -0.0654093506 1.1088576294 0.2151487626
H 0.4165192036 1.437037568 1.1416668676
H 1.9581570481 -1.237982947 -1.0046307919
H -0.6985222342 -2.0872958711 -0.6027818344
H 0.0125852888 1.9360213543 -0.4977067596
