15
0
C -0.6806683352 0.6930950246 0.1614110419
O -0.9761738411 0.9565612626 -1.2096992241
C -0.064822606 1.6463334858 -1.8996218861
C 0.2699805435 -1.4806986112 -0.585841106
C 0.0180291251 -0.6187474989 0.3868915247
C 0.395602378 -0.8570753794 1.8192408277
O 0.9629430204 2.082715292 -1.4753228868
H -1.6468793006 0.6917851715 0.6707812382
H -0.0784063917 1.509791462 0.5656799952
H -0.4135102098 1.7624898203 -2.9348111624
H 0.7758907544 -2.4165463119 -0.3824909932
H -0.0145228649 -1.2838175909 -1.6113194502
H -0.4799000864 -0.7979151146 2.4722941446
H 1.1060954169 -0.1002839282 2.1627670118
H 0.8512113976 -1.8378960836 1.9474869247
