14
0
N -2.2718349795 0.1695017176 0.3835298021
C -0.9390097403 0.0363902541 -0.0790403708
C 0.0245378763 -1.1462754563 -0.0382141889
C 1.0544279647 -0.3275211925 0.2444409812
N 2.408856631 -0.4363873999 0.3776175114
C 0.1910166308 0.914796091 0.247043522
N -0.4421328382 0.9788291183 -1.1038028018
H -2.9119242094 -0.3327812928 -0.2184266588
H -2.3629739334 -0.2136676449 1.3153098427
H -0.0380120413 -2.1557693399 -0.4220430869
H 2.9413436265 0.3995713949 0.2145598273
H 2.834833311 -1.2731348588 0.0172653743
H 0.1995757791 1.765830991 0.9128924995
H -1.0783520776 1.7773726185 -1.0826112533
