14
0
C -1.8023479432 0.2579155595 0.6601152541
C -0.4219195396 -0.1821996598 0.3299661619
C 0.1450518724 -1.537646465 -0.063958094
O 0.5329706324 -1.497713553 -1.4547985171
C 1.3705311547 -0.8838409309 -0.4676762656
C 0.7156735902 0.4265292859 -0.053289377
N 1.1771990428 1.7118776186 -0.17267848
H -2.5069414118 -0.0374307179 -0.1234027607
H -1.8580853327 1.3432389669 0.7667232662
H -2.156342104 -0.1792785875 1.5969694971
H 0.0245923422 -2.5129253804 0.3872582682
H 2.3952729502 -1.2165864717 -0.3790143264
H 0.4818996227 2.4394078877 -0.1626864236
H 1.8928161238 1.8546434475 -0.864398203
