13
0
N 2.5664104082 -2.5986271037 0.7027225658
C 1.5773270567 -2.0253556115 0.6566371535
C 0.9826336778 1.3910385378 -0.4898756237
C -0.0965424914 1.4630075828 0.2809025064
C -1.1278934953 0.4225498943 0.4009175723
C -1.4952500363 -0.4134423192 -0.5658558514
H 1.2002770288 0.520261371 -1.0992555927
H 1.6961885708 2.2037433487 -0.5324206055
H -0.2376927094 2.3423655509 0.9026779389
H -1.6326905364 0.3635711056 1.3618389357
H 0.6497138974 -1.4877703447 0.6034432678
H -1.0656476943 -0.3581953598 -1.5603072715
H -2.2584916767 -1.1633656523 -0.3990229956
