13
0
C -1.1787096561 -0.9721642483 0.5981959938
C 0.1489532959 -1.4709476365 0.1238570714
O 0.144076756 1.5642830129 -1.6535685286
C 1.3126781455 -1.185133238 0.6871465787
C 0.3727942263 2.3922909637 0.6684667385
N 0.2569142959 2.0870751826 -0.4502444841
H -1.6854268401 -0.4078482446 -0.1895747971
H -1.836499043 -1.8039556213 0.8637813791
H -1.0729972187 -0.3238243559 1.4688225018
H 0.1352692873 -2.1124267595 -0.7545799697
H 0.0050570137 2.3102743893 -2.251402316
H 2.2429281556 -1.5777591196 0.2946648416
H 1.3762495818 -0.544551325 1.5608879904
