11
0
C 1.321734684 0.801556476 0.0838797105
N 0.2466674204 -2.4967914881 -0.1347264395
C -0.7437829472 -1.9335187393 -0.2708302874
N -0.1137403781 0.8927126187 0.3245688077
C -1.9799854869 -1.3315178867 -0.4578453366
N -3.0278480798 -0.8965883587 -0.6285563298
H 1.7247771613 -0.0573042102 0.6226936642
H 1.4983167206 0.6228572811 -0.9777468352
H 1.8911419367 1.6910463294 0.3786184481
H -0.5259695756 1.6438494651 -0.2120244327
H -0.3038464554 1.0895205126 1.2980520308
