16
0
C 1.3927881779 -1.6668123142 0.2151711351
C 0.2889758189 -0.9640823463 0.8755980687
C 0.0919321862 1.959337707 0.1226891434
C -1.0870737976 1.0181729229 0.3319149897
C -0.7450887747 -0.434424963 -0.0223538027
O -0.5767482769 -0.4885160177 -1.4404453006
H 0.9683695503 -2.681999983 0.1006467684
H 1.6619058162 -1.3196121759 -0.7899714206
H 2.2694781286 -1.7883311958 0.8501466484
H 0.9157096002 1.7048973762 0.7951861539
H -0.1938309196 2.9922930118 0.3267381008
H 0.4576538617 1.9069232602 -0.9035361024
H -1.4133369492 1.0418393635 1.3719896304
H -1.9284305306 1.3189392284 -0.2957405836
H -1.6170693532 -1.0502871836 0.2752423878
H -0.4674245383 -1.3999816902 -1.7159538167
