14
0
C -0.3166185846 1.3908332229 0.5053308636
C 0.1187513785 -0.0749588923 0.4956869512
C -0.6227949118 -0.8962931666 -0.5718025544
C -3.1666831671 -0.9205781919 -0.117999927
N -2.0233516156 -0.917145414 -0.3322982818
C 1.55818338 -0.2057177358 0.2634821212
C 2.7313158663 -0.309189432 0.0485556983
H -0.098143613 1.862329286 -0.4545984897
H -1.3868994572 1.4695226989 0.6978547257
H 0.2159571591 1.9389906618 1.281635741
H -0.1088119866 -0.5198185927 1.4693720123
H -0.4458587286 -0.4700378132 -1.5612558315
H -0.2575046193 -1.9235359444 -0.576128526
H 3.7763118998 -0.4011796866 -0.132809503
