10
0
C -0.8876642857 0.943288279 0.0278543967
C -0.3913750044 -0.4211737071 0.3119458366
C 0.8269101293 -0.9237013299 -0.0231955942
C 1.7382296121 -0.1062846157 -0.7487862413
H -1.7422118735 0.8832692353 -0.6535166099
H -0.1090855126 1.5583780439 -0.4160382899
H -1.265810729 1.3926916925 0.9504362081
H -1.0896197857 -1.0805816548 0.8281289678
H 1.024186999 -1.9597554471 0.259972651
H 2.5978944505 -0.7340894959 -1.044091325
