11
0
N -1.9814102283 -0.3952996686 0.1585527306
C -0.6266510053 -0.2208455 0.0433048053
N 0.1280522792 -1.3902134288 -0.2896777541
N 1.3425986964 -1.1321151145 -0.3227630093
C 1.5574470232 0.2769878735 -0.005907171
C 0.1966383222 0.8191148324 0.2216798864
H -2.5564389481 0.4209130581 0.052738374
H -2.3333252451 -1.2153633896 -0.3062885613
H 2.2228445097 0.3215008347 0.8629492799
H 2.1007269489 0.724535177 -0.8447583095
H -0.0511303528 1.8348313256 0.4831467288
