11
0
C 1.358256971 -0.1638961357 -0.0571838793
C -1.502714186 0.9701987068 0.8636854869
C -1.1868688609 0.3057640916 -0.477064623
C -0.081094921 -0.4269117564 0.2855389203
O -0.5188279033 0.3227126754 1.4652892355
H 1.6159489031 -0.6875978955 -0.9799987993
H 2.0174532248 -0.5215044906 0.7349138606
H 1.5337924867 0.9032717866 -0.202964624
H -2.004193135 -0.2911826839 -0.8820047691
H -0.8546489017 1.0152874301 -1.2368180884
H -0.2655556778 -1.4886587284 0.46069028
