14
0
C 2.7023969092 0.4333280169 -0.5961830749
C 1.2752559334 0.247041575 -0.2862064285
C 0.1944856238 0.5769850136 0.325417815
C 0.0829582433 -0.6132012492 -0.5887596854
C -2.9365461263 -0.3512836179 0.7372046366
O -3.0388790735 0.4764544533 1.5959673915
H 3.1180572694 1.2861435457 -0.0597770847
H 3.2675749999 -0.4621684933 -0.3282070172
H 2.838876091 0.5910440787 -1.6684243317
H -0.4195302379 -0.5153863558 -1.5526647608
H 0.0278118786 -1.6190978766 -0.1685965824
H -3.1163040511 -0.1154003446 -0.3283895749
H -2.6590240957 -1.3979879417 0.962388351
H -0.3454463644 1.209626196 1.0079623464
