14
0
O 1.7003306351 -2.1589918717 -0.2147688699
C 1.0985631369 -0.9072583607 -0.4800924986
C -0.1466889304 1.7204439595 0.6281492233
O -0.9864101751 2.7091795254 0.813451919
C -0.2642963475 -0.7591503145 0.1780260239
C -0.8882565347 0.6149376069 -0.0508594025
H 1.1335390693 -2.8505943701 -0.5608088722
H 1.0065759168 -0.7402720118 -1.5633921421
H 1.7816600855 -0.1515447396 -0.0913988165
H -0.5085546973 3.437439906 1.224114366
H -0.1575815571 -0.9458528647 1.2498894332
H -0.9410342281 -1.5277522562 -0.211253512
H -0.8246851793 0.8787884187 -1.1188914529
H -1.9552621941 0.6316793727 0.2024566012
