14
0
C 2.5054090672 -0.049967623 0.6486754993
N 1.2916495035 0.7441120631 0.631670612
C 0.2659029883 0.2679259485 0.1176695565
O 0.0361636488 -0.9378298098 -0.4906474483
C -1.3451542229 -0.6007600964 -0.7728324869
C -2.3149925618 -0.8809167249 0.2046733323
C -1.126317538 0.8174268023 -0.0453718957
H 3.3172625254 0.5384633491 0.2191966519
H 2.7696707236 -0.2620909233 1.6861719729
H 2.4255329501 -0.9959227456 0.1068740124
H -1.517878746 -0.5474234472 -1.8472988536
H -1.642827672 0.9919894911 0.9015748583
H -3.2654757779 -0.4988590893 -0.2067261504
H -1.2707198886 1.6453438057 -0.7329916607
