11
0
N 2.0227201248 0.0866172259 0.5788263155
C 1.3076229166 0.1314690577 -0.5499531087
N 0.3663252616 -0.6606959837 -1.2048715687
N -0.9290893892 -0.4300423862 -0.7094683982
C -1.1637017957 -0.1282273813 0.5475806961
O -2.4900913646 -0.0760324594 0.725677888
N 1.0876320881 0.7019048184 -1.6346959469
H 1.5261304275 -0.3147318921 1.3590671291
H 2.5633140531 0.9099840913 0.7884589285
H -1.6540064818 -0.6308046039 -1.3891096668
H -2.6482928409 0.1404575134 1.6453497319
