14
0
C -1.6841915187 0.2188695918 0.0180463451
C -0.3526878821 0.0649209382 0.7342866977
C 0.6044813213 -0.878804099 0.0217149971
O 0.9092773009 -0.3449789676 -1.2871813388
C 2.0466020701 0.1878832106 -1.57814327
O 0.2714591388 1.3112043878 0.966072116
H -2.1881744137 -0.7438366331 -0.0844198354
H -2.3310947748 0.8886501278 0.584379624
H -1.5426098737 0.632225971 -0.9830782436
H -0.5205958152 -0.3622187052 1.7275851264
H 1.540461897 -0.9682971577 0.5789886642
H 0.1545133103 -1.8601036028 -0.1345160197
H 2.7051410107 0.0668499377 -0.6754804371
H 0.2651922291 1.8177300005 0.1493595742
