16
0
C 1.7319035147 -1.1808277338 0.4717523027
C 1.3122633186 -0.1976721518 1.4939227537
N 0.3857111873 0.6598542643 1.3344951321
C -0.3781421163 1.0954223823 0.0480351525
O -0.1964271462 2.2960492514 -0.1455940429
C -1.0786133883 0.0791296428 -0.5101293682
C -1.93463052 0.2945700186 -1.7194816081
H 1.4226802024 -0.8592567832 -0.5223119305
H 1.2535194195 -2.1433650313 0.67383267
H 2.8101005583 -1.3327404121 0.5294357734
H 1.8294343324 -0.1918902004 2.4515790409
H 0.2425239711 1.3460610589 2.0675628793
H -1.0602364912 -0.894431375 -0.0372382391
H -1.8719527986 1.3354785799 -2.0385077714
H -2.9871248982 0.0691028203 -1.5203601531
H -1.6271301454 -0.3313613309 -2.5635385914
