18
0
C 2.220606849 -0.3349360149 0.080747184
C 1.4277193704 0.9546660992 0.2562022395
C 0.6994539038 1.4006473591 -1.0044102765
C -1.5893183268 -1.1997546492 -0.0674294651
C -2.7589515063 -0.9243959541 0.8367913021
C -0.9591359878 -0.2698262101 -0.7391385936
N -0.4342478217 0.5821636516 -1.4269634315
H 2.7302902075 -0.611050167 1.0051882769
H 2.9786721499 -0.2230639981 -0.6982342039
H 1.5746466955 -1.1683922146 -0.1992215905
H 0.7034710187 0.8413337574 1.0689643656
H 2.1030572129 1.762225528 0.5531115204
H 0.3106851969 2.4149223747 -0.8826794367
H 1.389315271 1.4377319036 -1.8516833367
H -1.2384425918 -2.2184986924 -0.1872327841
H -3.6474632518 -1.4672870019 0.5056725974
H -2.5476685913 -1.2327613484 1.8634924587
H -3.0025777978 0.1380725773 0.8496151741
