14
0
O 2.6802024345 -0.6169708627 -1.0834592886
C 2.4738135393 0.4750226254 -0.9166082818
C -0.0354300848 -0.7069073964 1.4176665492
C -0.5366823495 -1.5383503482 0.2594573065
C -1.0448141523 -0.1881370487 -0.3350536315
C -0.4648755947 0.4462330769 0.9083138522
H 0.5182693428 2.769443355 -1.1947396473
H 0.4861960943 -0.9704018997 2.3297594163
H 0.233274833 -2.0394050505 -0.331632569
H -1.3204527972 -2.26084768 0.4962124334
H -0.5812300745 0.104345676 -1.2802630628
H -2.1288606228 -0.1131089077 -0.443056855
H -0.0038903618 3.2754107348 -1.3586467614
H -0.4249042064 1.473152726 1.25007854
