13
0
C -1.0385452481 0.74998447 0.5662475092
C -0.3169783229 -1.4712302592 -0.2621041369
O 0.0879612646 -1.9697410015 -1.2754482012
C 0.1643673234 -0.1643396654 0.3202985169
C 1.2401842351 0.485601604 -0.5331619342
H -0.7317800311 1.6473326083 1.1048981001
H -1.8107169862 0.2524779551 1.1573073907
H -1.4858259822 1.0633419995 -0.379988315
H -1.1143701117 -1.9743520449 0.3285042606
H 0.5815145957 -0.4326114702 1.3013230912
H 0.8441319962 0.7523348072 -1.5147399079
H 1.612369702 1.3939576154 -0.0564881434
H 2.0788965653 -0.1914776183 -0.6941622298
