16
0
C 1.9439207674 -1.3081876862 -1.0232275786
O 0.9929327024 -0.7572096829 -0.1542897991
C -0.6719704224 1.8402443634 1.8386248294
C -0.8820648261 1.393909947 0.6113514928
C -1.2354232865 -0.0182170443 0.2575949483
C -0.276612585 -0.640492197 -0.7414224502
H 1.666215479 -2.3252552734 -1.3322440083
H 2.0675335786 -0.6941676332 -1.9255239786
H 2.8928940707 -1.3474335167 -0.4900937661
H -0.7341393774 1.1816241042 2.6986050398
H -0.4253163731 2.8773870525 2.0305448529
H -0.7971501706 2.0857548648 -0.2249366158
H -2.2360503744 -0.0420596457 -0.1881490931
H -1.2662717082 -0.6351912264 1.1589075483
H -0.6446152031 -1.6309545244 -1.0485862396
H -0.2184972714 -0.0199619018 -1.6501041822
