14
0
C 0.9428062592 -1.3236351675 0.1470414066
C 0.1381336673 -0.0659676359 0.2585902292
C 0.6528607669 1.1538642627 -0.4763932234
O 0.5421909308 0.9763598679 -1.8697577735
C -1.2352978447 -0.081138006 0.6650621215
O -0.3776860013 0.2409299326 1.6394314592
N -2.4507861449 -0.2302104855 0.4350119938
H 1.0929390519 -1.5544561334 -0.9084285369
H 1.9222618206 -1.1817223231 0.6084923184
H 0.4406741267 -2.162964718 0.6250915659
H 0.1128709107 2.0401589111 -0.1273417515
H 1.714857912 1.2957221207 -0.2652668959
H -3.0114459976 -0.0625865874 1.2677174684
H -0.3895494574 0.9397949617 -2.100039382
