17
0
C -1.9444204281 -0.4341847752 0.158250151
C -1.332096118 -0.374180247 -1.2157378561
N -0.3015749888 0.6465288498 -1.5421051137
C 0.0706490105 -0.6797133625 -1.4092927997
C 1.0993049644 -1.5044453918 -1.3906844279
C 1.7079153098 1.0213676191 1.5451332338
N 0.9068960533 1.8761169286 1.0754022884
H -2.7280775382 0.3186428187 0.268225672
H -1.1902307125 -0.2575574731 0.9266568466
H -2.3915585958 -1.4147041687 0.3339170973
H -2.0202658938 -0.5445820317 -2.0391404975
H -0.0235855508 1.2368952707 -0.756733021
H 2.1092289049 -1.1411800532 -1.5374912434
H 0.9478642306 -2.5666704631 -1.2542133765
H 1.7549323007 0.0364304678 1.0800540057
H 2.368445797 1.2045928101 2.397205189
H 0.9497212549 2.7562012012 1.5853188519
