12
0
N 0.9058431317 0.2374405557 0.9868631231
C -0.2756035915 -0.1947109583 1.1110344412
C -1.0833812869 -0.6588232214 -0.0668291505
O -2.4032929356 -0.1668119388 -0.0027368738
C 2.5703999978 0.7620321978 -2.6030472479
N 2.1539600967 0.6092709212 -1.5292711558
H 1.3183304722 0.5002055468 1.8777138876
H 1.7589522686 0.4700921585 -0.5854874089
H -0.7883675996 -0.2498369947 2.0767758908
H -0.5771378274 -0.3921499842 -0.99927772
H -1.1563978714 -1.7492890445 -0.0265693643
H -2.4048548547 0.7538897623 -0.2711654215
