14
0
C -1.5110034013 -1.1481617079 0.5256679529
C -0.1537880731 -0.6770506831 0.1678363592
C 0.368101149 0.6295133319 -0.3917109868
N -0.1490184653 1.8317642453 -0.8828173304
C 0.8753325325 0.1546409856 0.8907588678
C 1.5679483084 -0.2967274232 -0.3723489924
O 0.8124680272 -1.5137926479 -0.5152960261
H -2.0718549834 -0.3263653018 0.9728739027
H -2.0423621476 -1.4832518569 -0.366144388
H -1.4654128075 -1.9722767082 1.2385718142
H 0.3491628055 2.6451607115 -0.5555528899
H -0.2188982961 1.8461001573 -1.8889426367
H 1.0970353499 0.5436058187 1.8704496859
H 2.5923050018 -0.2018289212 -0.7007553323
