16
0
C 0.7396268999 2.1007621081 -0.9812378487
O 0.5277448651 -0.6757097599 1.3694653195
C 0.1399846062 -0.7763020076 0.0133252503
C -0.5502467737 -2.1081522303 -0.186777272
C -0.7701780771 0.3906037408 -0.3444225136
O -0.1813898603 1.6343642187 -0.0245535878
H 1.6201072086 1.4533075815 -1.0648243776
H 0.2710452853 2.1834545325 -1.9695758323
H 1.0641490034 3.0893485812 -0.6595434998
H 1.0354274689 -0.7416544885 -0.6259244834
H 0.1112158491 -2.9201861464 0.1149514864
H -0.8192805168 -2.2551605896 -1.2347849509
H -1.4555030261 -2.1617132373 0.4213556275
H -1.0446963077 0.3543412774 -1.4074287017
H -1.6826631537 0.3271148976 0.2537527348
H 0.697940529 0.2553135218 1.5438146494
