15
0
O 2.2439926974 1.5689760596 -1.0448657058
C 1.6446864767 0.6111071752 -0.3821451868
C 0.2381563461 1.0418759763 -0.1386704447
C -0.7133516845 -0.0616333164 0.2627858513
O -2.0015280385 0.4086036752 0.5569953551
C -0.5977379562 -1.4292683118 -0.3345994131
C -0.259973652 -1.1889458115 1.1165712789
H 3.1629007285 1.3138328092 -1.1775211183
H 0.7843458631 -1.220225613 1.3975482942
H 0.3089668544 1.7591491068 0.6934065342
H -0.1557908363 1.6065905884 -0.9949747799
H -2.4396431782 0.6271306252 -0.26869879
H -1.5202025635 -1.9520654297 -0.5517378927
H 0.2229976337 -1.6218927757 -1.0146604851
H -0.9671436907 -1.5384767577 1.8563505029
