12
0
O 2.6248739482 -0.5837138099 0.0764879816
C 1.3839858769 -0.3428313569 0.052818272
C 1.1954801991 -1.6970223361 0.0050467965
C -1.5979828046 -0.0324035007 -0.2574808513
C -0.6004304848 1.068213463 -0.1442801412
C 0.7193867323 0.9384569293 -0.0013754006
H 1.1453413079 -2.1976676575 0.9729593719
H -1.1342216707 -1.0055413423 -0.4177042474
H -2.2856885653 0.1679308047 -1.081349509
H -2.2021648431 -0.0776211129 0.6530203299
H -0.9996254678 2.0782573241 -0.1865316583
H 1.3670537716 1.8049235954 0.061620056
