13
0
N -1.2869688589 0.7619370751 1.8632558564
C -1.9760517357 -0.1498324307 1.1581024077
O -1.5823071205 -0.7048534115 0.1538394014
C 0.9169217612 -0.9485059081 -1.9140947289
C 1.8607605979 -0.1198030838 -1.4846532508
C 1.6618868161 0.6942260291 -0.3235680242
N 1.5054226817 1.3473508482 0.6085441247
H -1.6862865471 1.1757792995 2.6841981919
H -2.9730079975 -0.3635170151 1.5837999687
H 1.0902340031 -1.5560202939 -2.7934454882
H -0.0333135645 -1.0326844693 -1.3974627076
H 2.8191649248 -0.0164722334 -1.9787526397
H -0.3600609604 1.0421995938 1.5684838886
