13
0
O -0.9053971559 -2.5196543676 -1.0483909987
C -0.5084549109 -1.3894183333 -1.0256640478
C -0.1962429493 -0.6110293721 0.2154335997
C -0.8589696002 0.793779252 0.3012790379
C 0.5206056123 1.3635114229 0.6170219835
O 0.9032390129 2.399320162 1.0606947499
C 1.2100401627 0.054278607 0.2439759142
H -0.3922485993 -1.2282099338 1.0903653355
H -0.3420145066 -0.8288771859 -1.9747024974
H -1.6366415229 0.944502636 1.0482379927
H -1.2204963492 1.1573815648 -0.6653790881
H 1.9411292261 -0.335267656 0.950597099
H 1.6730235804 0.1222842041 -0.7450180806
