17
0
C -2.5684478263 -1.0485396322 0.901761505
C 0.1231245049 0.0259595268 0.2383565946
C 1.1022324586 0.1758680373 -0.8453506415
C 2.5418123662 0.225749248 -0.3461777343
O 2.7264900682 1.292085305 0.5584319937
C -1.1926895336 0.534710941 -0.1165535114
O -2.2355267398 0.3126890383 0.7885484301
H -1.7030905726 -1.6405458689 1.2215096229
H -3.3551299333 -1.1311492747 1.6496964818
H -2.9417439536 -1.4476765448 -0.0520937722
H 0.8920453912 0.9757161356 -1.5716733984
H 0.9407449447 -0.7781240778 -1.3838388843
H 3.2337577112 0.3976592743 -1.1721607152
H 2.7956367042 -0.7329358623 0.1208169051
H 2.1929944782 1.0964524973 1.3349576816
H -1.4964149653 0.2670088398 -1.1486051769
H -1.0158881029 1.6262194172 -0.1353023806
