14
0
O 0.9869993998 -1.6618988186 0.5334497655
C 1.0322856162 -0.4695179086 1.2895852763
C 0.0120657798 0.5824727045 0.8438925442
C -0.1424327402 0.8106720341 -0.6780675607
C -1.4382161313 -0.0080811728 -0.5273630532
C -1.4371379675 0.1334402478 0.9556117538
H 1.4969459977 -1.54347697 -0.26881893
H 2.0334866545 -0.0270277171 1.251612204
H 0.1922373197 1.4680039474 1.4633466452
H 0.6300063212 0.4318619066 -1.3523759046
H -0.3267547534 1.8556223478 -0.9232497705
H -2.3465084546 0.1631800642 -1.1061488698
H -1.1832751867 -1.0822970979 -0.6017696851
H 0.8215471446 -0.7461585677 2.3236075849
