12
0
C -1.90195567 0.1520555159 -0.7028880758
C -0.617284071 0.0008892913 -0.2232242486
C 0.1564814448 1.1543076113 0.0529215535
O 1.3381436695 0.9726466556 0.4975703389
C 1.5478290634 -0.4771344447 0.5912733923
C 0.2714901696 -1.0409931687 0.1176858839
H -2.3046030043 1.1424897328 -0.8600346144
H 1.8139613168 -0.652553662 1.6410620788
H -2.5322486927 -0.6955025945 -0.9272665796
H -0.1472618076 2.1900313679 -0.0726188085
H 2.4385677293 -0.6698285164 -0.0194133818
H 0.084129852 -2.1003247884 0.0580014612
