13
0
C -0.5641897174 1.3312173122 0.2411906476
C -0.363253792 -0.0037168692 -0.4604816335
C 0.7879543824 -0.8150671924 0.1282480737
O 1.9665921552 -0.0707404354 -0.0815064203
C -2.5127460573 -1.4420964574 -0.3023838028
N -1.550736065 -0.7937338924 -0.3885007901
H -1.3747892672 1.8906742284 -0.2247366702
H -0.810177559 1.1729802005 1.2926532982
H 0.3543566106 1.9124585136 0.178163742
H -0.1483683267 0.1648076202 -1.5188836759
H 0.8299450585 -1.7882874576 -0.3731125082
H 0.5974916298 -0.9841057642 1.1957527527
H 2.7101129479 -0.5493838062 0.2858209869
