11
0
C 2.7101026073 0.2194381432 -0.0617768655
C 1.4676043805 -0.1590505125 0.0861556701
C 0.2647772667 -0.5223759533 0.2247617453
C -0.9772756039 -0.9037564668 0.3922279497
N -2.1054907135 -0.0943386331 0.1949532554
N -1.9360105959 1.0813092049 -0.4046818169
C -1.7255377778 2.132183072 -0.8659828648
H 3.5278001004 -0.4513971928 0.171160771
H -1.238467991 -1.8900955007 0.7573002054
H -2.9473707881 -0.5612026656 -0.1042074383
H 2.9468081154 1.2137755047 -0.4198636115
