16
0
C -2.0867419508 0.0270177492 0.1921778855
C -0.6582477145 -0.439335434 0.1001079016
O -0.2025321025 -1.2381280696 0.8871322758
C 0.1812133626 0.1444921092 -1.0142710875
C 1.658759862 -0.1985557422 -0.9006333007
O 1.898081662 -1.5810754437 -1.0104749466
H -2.6491062503 -0.6115973104 0.8695470945
H -2.0985919977 1.0514639892 0.5740937087
H -2.557497578 0.04384584 -0.792400444
H 0.3858236298 2.0918627578 1.9875107655
H 1.4695844184 -1.9885040628 -0.2505694437
H 0.0300366837 1.2292149538 -1.035155716
H -0.2192350858 -0.2381196538 -1.9600431337
H 2.0544524026 0.1962698908 0.0436908412
H 2.2073844659 0.2813910965 -1.7128410483
H 0.4481961925 1.3606403299 2.1197246476
