17
0
C -2.6489170747 -0.7577966882 1.1696506026
C -0.4532389307 1.0555678256 -0.9143842777
O -0.7307242853 1.9776220047 -0.2046036432
C 0.4415103196 -0.0981450474 -0.5349714631
C 1.891297174 0.0739819873 -1.0399385175
C 2.2180595873 0.1922780423 0.454411162
O 0.8603180343 -0.1028599322 0.8203790598
H -3.0990486222 0.2271151565 1.0575746463
H -2.62691907 -1.2598019542 0.201825854
H -3.240632362 -1.3536419705 1.8630964693
H -0.8267065932 0.9988162924 -1.9617245056
H -1.6356153104 -0.6466268253 1.5535143924
H -0.0522407933 -1.0329192914 -0.8261602836
H 2.301051774 -0.8062314181 -1.5291242984
H 2.085171984 0.9563238485 -1.6476739726
H 2.5123598313 1.1907981246 0.7861487562
H 2.913936337 -0.5480671546 0.853762019
