16
0
N -0.0411749499 0.6513208216 -0.1931205571
C 0.4783549359 -0.2056624816 0.7091474544
O 1.1566519132 0.0978539765 1.6782833933
C 0.0947527217 -1.6119279964 0.2877261335
C -0.985976046 -1.3995277304 -0.773241017
C -0.706660166 0.0134590256 -1.3094668939
O 1.3910613099 2.7930939886 1.0977671237
H 0.1996256021 1.6340294195 -0.1430856348
H 1.4756555557 1.9200196476 1.526222874
H 0.9921072513 -2.0850634617 -0.1197320911
H -0.2226744006 -2.1964413022 1.1490421946
H -0.9720490052 -2.1482507591 -1.5637017383
H -1.9726282678 -1.4230648336 -0.3076965221
H -0.0588462055 -0.0110145592 -2.1926558632
H -1.620679326 0.5442291601 -1.5792249843
H 1.1717250774 3.4113780846 1.7946351284
