11
0
O 1.8111347971 -0.4237450349 1.0595103245
C 0.7263534572 -0.0693302857 0.3851078359
N -0.2180238537 -0.9667948985 0.1906973659
C -1.2849897325 -0.303911669 -0.576339102
C -0.8450625827 1.1096133951 -0.8085848398
C 0.3891297441 1.1739828866 -0.193169122
H -0.1729367678 -1.9149859591 0.5199181697
H -2.224335472 -0.3307689863 -0.0180958534
H -1.441679107 -0.8203471201 -1.5269699605
H 2.4049086836 0.3297743938 1.1200558196
H 1.0450178335 2.0359542779 -0.134943638
