11
0
N 2.9671108591 0.2926276026 0.583619369
C 1.969501166 -0.1165059754 0.1944593387
C 0.6860225308 -0.6304812404 -0.273066341
C -0.4552602462 0.1348933273 0.370815296
C -1.0052016734 1.3203147899 -0.3122832236
O -1.767655151 -0.3071642669 -0.0685313657
H 0.6275811791 -1.6942681717 -0.0269946338
H 0.6364321681 -0.5078884916 -1.3583658356
H -0.4418719607 0.0555752964 1.4581179462
H -1.581459481 1.8783841632 0.4385630366
H -1.7247203907 -0.5384690334 -1.0038295868
