11
0
O 2.5645352094 -0.3548627355 0.5080029227
N 1.411503484 -0.4648432606 0.7921032507
C 0.4923203455 0.0957628885 -0.2087741048
C -0.6061529372 0.9518852861 0.4378186372
O -1.6258041955 0.0081035812 0.0955125968
C -0.6689414469 -0.8590077192 -0.5213536609
H 1.0458495972 0.5200176569 -1.0457652337
H -0.7624652452 1.9227700966 -0.0374530005
H -0.5026198076 1.0770688114 1.5188852725
H -0.6046752666 -1.8281361491 -0.0198811952
H -0.8642547371 -1.0016654563 -1.5864914849
