16
0
C -1.9781408198 0.4198711306 0.1394795364
C -0.5480304034 0.0277571997 0.4447714134
O -0.5896971718 -0.8883802778 1.531920659
C 0.1464154327 -0.5574457393 -0.7624904617
C 1.3972554613 -0.989796748 -0.7365125715
O 2.1402174398 -0.9253065554 0.4098046708
H -2.4479331191 0.8448573966 1.0262956256
H -2.0111230526 1.1590866473 -0.6631379119
H -2.5508403204 -0.4577924969 -0.1672380101
H 0.006470019 0.9237576025 0.7588895377
H 0.3146590261 -1.1495187927 1.7243362421
H 0.871125238 2.1935117676 -1.4361608192
H -0.3967657182 -0.6488161469 -1.6949785535
H 1.8887259996 -1.4240995521 -1.6007807431
H 0.7859932758 2.9267584493 -1.5445296493
H 3.0165397131 -1.2783798843 0.257874035
