18
0
C -2.3654835957 -0.0603491812 0.1967476277
C -1.3679030434 0.5142855753 -0.8081340343
C -0.0349913198 0.8164188533 -0.1923835287
O 0.5216086097 -2.1101911589 1.5077997256
C 1.1329801681 0.3480566242 -0.6176166764
C 2.4622689956 0.6510729449 -0.000951254
H -3.3287098986 -0.2588099631 -0.2762172754
H -1.9976272859 -0.9933166328 0.6284998567
H -2.5366583177 0.6369203832 1.0199564658
H -1.2328074966 -0.1774412475 -1.6444229313
H -1.779843764 1.4365460892 -1.2318680082
H -0.0470241076 1.4766996487 0.6751083473
H 0.4072703018 -2.7552939977 0.8086764633
H 0.4982309143 -1.256661662 1.0607045586
H 1.1419126647 -0.3077323849 -1.4876550022
H 2.946862014 -0.2629431825 0.3519868312
H 3.134874945 1.1109510742 -0.7291755914
H 2.3606042164 1.3294612178 0.8471724258
