11
0
O 2.1454403746 -0.8823554278 -0.8761973676
C 1.8609190327 -0.4348335269 0.2445073441
C 0.5754879597 0.0147900988 0.575144562
N -0.3064267557 -0.1508838413 -0.479326178
C -1.5361976026 0.1801893831 -0.6188341324
O -2.2292884659 0.8041589352 0.3272578403
H 2.6271086173 -0.3737639548 1.0342869526
H 0.2405190168 0.3360471454 1.5475061833
H -1.6459592853 1.0814150107 1.0433678917
H 0.2055045514 -0.5896152237 -1.257662165
H -2.077365443 -0.0401815986 -1.5259309309
