14
0
O -2.2728069632 -0.1126275089 -1.0025067754
C -1.3779381429 -0.1143889679 0.0974497725
C -0.2018847331 -1.0619187167 -0.1398498094
N 0.6752997259 -0.0152250984 0.521915708
C -0.3387815618 1.0093590827 -0.0048695853
C 2.0669331161 0.1693271747 0.1733043409
O 2.8540299225 0.5799623999 0.9595708386
H -3.1551558638 -0.1365254009 -0.6381922364
H 0.551564886 -0.0585408925 1.5326152098
H -0.1304742768 -2.0448899323 0.3312657873
H 0.1388566817 -1.1157072027 -1.1912433244
H -0.3621223678 1.909822471 0.61169192
H -0.0213011816 1.2567285682 -1.0364262992
H 2.2804737587 -0.0913719761 -0.872795547
