12
0
O -1.2985081234 2.1421662253 0.249935076
C -0.6233255818 1.1480139849 0.1755816544
C -0.9994024129 -0.1349183532 -0.5613935201
C 0.1804018858 -1.0881189454 -0.3490780956
C 1.1486072871 -0.2917488278 0.4816904559
C 0.7148172206 0.931681542 0.7712507036
H -1.9373078531 -0.5148149204 -0.1543923597
H -1.1789901762 0.1007037071 -1.6110786774
H -0.1080839371 -2.0047726055 0.171773979
H 0.644606564 -1.401920028 -1.2874671783
H 2.0993295515 -0.7030845623 0.800819297
H 1.2259485753 1.6874427831 1.3508186653
