17
0
C -1.6587660866 0.0828875855 1.1508337915
C -1.9534674237 0.1885501452 -0.2900958264
C -0.8763863102 -0.801563853 0.2131584798
C 0.6430958013 -0.5763298352 0.0408834339
C 0.3252473311 -0.3742267606 -1.3481478387
C 2.31770513 1.0292266855 0.2963410959
O 1.082973811 0.5401260058 0.7654003164
H -1.1062673322 0.8862452982 1.6161318759
H -2.3561930984 -0.443426505 1.7890908207
H -2.8496994333 -0.2720863203 -0.6828434634
H -1.624913773 1.0718822828 -0.8121516395
H -1.1586122933 -1.8437214808 0.1886798696
H 1.16964122 -1.4815436524 0.3701825454
H 0.1665145383 -1.3714068098 -1.789011851
H 2.2558900432 1.2922435229 -0.7645579892
H 3.1172212498 0.2898121733 0.438186136
H 2.5540366262 1.918602518 0.878385243
