11
0
C -1.2447843351 0.4571976299 0.3945095282
N -0.0307043692 -1.294414632 -0.8558695353
C -0.0303960699 0.1096214508 -0.459002412
C 1.2942369246 0.2005804993 0.2039589283
N 1.9047233599 -0.9124141853 0.1826909451
N 1.0159798165 -1.8370972616 -0.5066569929
H -2.1581768924 0.2619289094 -0.1651102916
H -1.2586528457 -0.1445468653 1.3035312367
H -1.2237648078 1.5109789363 0.6724741144
H -0.0414620743 0.7002219252 -1.3829741815
H 1.7292842935 1.0807065933 0.6598056606
