10
0
N 3.2193258391 1.1699275239 -0.7677241507
C 2.3484829938 0.8585831489 -0.0876653242
C 0.2717089375 -0.2337672361 0.379306199
C 1.2835804049 0.4783113842 0.7875010556
O -2.153683197 0.9258319313 -0.5833284613
C -1.98710737 -0.2602184694 -0.5468693315
C -0.7566395168 -0.9220288743 -0.0213457039
H 1.3415544376 0.8036695535 1.8207610519
H -2.7614853757 -0.9616893139 -0.9095099476
H -0.7295611535 -2.006363648 0.0143236127
