12
0
C -0.9912007053 -1.037547309 0.7766367752
C -0.0306142427 1.1291922395 -1.6717141552
C 0.8725894246 1.5147260943 -0.5594581111
C 0.97505014 0.5154326908 0.3172233923
C 0.1320641406 -0.6112843957 -0.1483336807
O -0.4250002069 -0.0877955807 -1.3814682989
H -1.6155681658 -0.1818090859 1.0354258176
H -0.5826556892 -1.4654737844 1.6929996779
H -1.6102919612 -1.7897595084 0.2889744111
H 1.3599132638 2.4772703757 -0.5090315216
H 1.5559590376 0.4807453711 1.229317902
H 0.7428409646 -1.4741031071 -0.4337072087
