16
0
O 2.4578450495 0.2123235954 1.0513695408
C 1.882384828 -0.8082596314 0.3658480702
C 0.5981151799 -0.9443100887 0.0525742989
C -1.90509738 -0.5119081094 0.4990313599
C -1.5128069669 0.37968977 -0.6356696515
C -0.4913345652 -0.0078126334 0.4022303855
H 1.8031855287 0.8907108922 1.23385202
H 1.4494391038 2.1443334739 -1.7000022646
H 2.6190360652 -1.5497913948 0.0845282766
H 0.3274404873 -1.8283714756 -0.5140965799
H -2.5384874612 -0.1064695213 1.2767775381
H -2.0705422996 -1.5611023639 0.2894987452
H -1.4076537581 -0.0628469578 -1.6179413134
H -1.8753294727 1.39911082 -0.6390411661
H -0.2436003684 0.7738042667 1.1138728911
H 1.3122300298 1.4253543583 -1.5550861508
