12
0
O -0.160306581 -0.1111192942 -1.2895335031
C -0.7829621153 -0.6800368123 -0.1362045611
C -0.6494487937 0.1801552008 1.080117662
C -0.0376556779 1.349448445 1.1404834235
C 1.0964353194 -0.4837815701 -1.5441881882
O 1.7469461046 -1.2597711993 -0.9107952322
H -1.8352856603 -0.7979909842 -0.4020053962
H -0.3608824972 -1.6690044963 0.0535181541
H -1.1137316403 -0.2377384268 1.9692883363
H 0.4314360068 1.7931355766 0.2706692883
H 0.0132940719 1.9038773856 2.0684440012
H 1.446531463 0.0348201753 -2.4470179846
