13
0
O 1.9529531193 0.2208861453 -0.902469181
C 2.3939821282 -0.3987417982 0.3453656702
C 1.0246246683 -0.1706418671 0.0015394486
C -0.2662611144 -0.1697217396 0.1464136633
C -1.4436198734 -0.4572680211 0.9730688205
C -1.5800798722 0.1940019753 -0.3855605545
O -1.9886711282 1.5278020984 -0.3991709356
H -1.4293021312 2.0096199446 -1.0110283718
H 2.9053610676 0.2755753464 1.0244013148
H 2.8290691117 -1.3856473147 0.2264619091
H -1.6285287145 0.188322713 1.8244332325
H -1.7770077565 -1.4829273934 1.0857877238
H -1.9939035048 -0.4143660889 -1.1872377403
