15
0
C 0.913886846 1.2092683218 -0.3329571899
C 1.3675492336 -0.2187917309 -0.1471254198
C 0.2414207799 -1.1849566531 0.1316589165
O -0.7697204529 -1.1433258459 1.062587304
C -1.459122436 0.0587515382 1.2920021354
C 0.0288563861 0.902861978 -1.2801323998
C 0.340514108 -0.573699991 -1.2449746446
H -0.7920018281 0.8485324329 1.6513210434
H 1.1323909691 2.1089084008 0.2275344489
H 2.3964236613 -0.5522133367 -0.1206985522
H 0.6089682028 -2.2084380682 0.1192900435
H -2.2028189958 -0.1624437764 2.0566148409
H -1.9629852381 0.417683939 0.3886946452
H -0.7512983672 1.4561105648 -1.7868891701
H 0.5352831311 -1.1956107732 -2.1085960012
