11
0
N 2.4472050688 -0.1600345916 -0.0262034162
C 1.1925101806 -0.0240171554 0.0241529089
C 0.5075275315 1.3005695889 0.0630449289
C -0.8934551643 0.9048967321 -0.0784092903
C -1.0189874009 -0.5984858586 0.1747591967
O 0.3149023773 -1.0788313502 0.0494707223
H 2.7002963244 -1.1486661844 -0.0530315961
H -0.974728071 1.1269937523 -1.1647455578
H -1.6237128598 1.5556894798 0.4005494454
H -1.6466159404 -1.1268868592 -0.542928161
H -1.3845660462 -0.8081155535 1.1833828192
