12
0
C -1.3915120659 0.2511606885 -1.7591763447
C -0.4825699264 0.096125018 -0.8052844919
C 0.1610418317 1.2695753767 -0.1889890482
O 0.9826584749 1.2100709555 0.688714744
C 2.7489719267 -1.4820008529 1.6371248517
O 2.077257665 -2.0649484699 0.9492651157
H -1.8819602238 -0.5915214034 -2.2299988066
H -0.6543885368 -0.7544536612 2.9465252108
H -1.676484641 1.2412123782 -2.101795093
H -0.1764538404 -0.8783927303 -0.4414346782
H -0.1690324116 2.2490365162 -0.5939235819
H -0.2060192524 -0.3244838154 2.5338901222
