11
0
O 0.971730286 0.8505081241 -0.3519370031
C -0.3373672346 1.1313536782 0.7523224899
C -1.1325007451 -0.0544102574 0.1990382524
N -0.1077661693 -1.0450115846 -0.0958266906
C 1.1033506119 -0.5695513435 -0.3680898484
O 2.1473807811 -1.0935314567 -0.6064556985
H 1.7781017565 1.2198549514 0.0274757707
H -0.7225642425 2.043501338 0.2744662821
H -1.796597287 -0.4228901477 0.9829370815
H -1.7292544495 0.1237521004 -0.7073091167
H -0.2621883075 -2.0353264023 -0.1414305193
