11
0
O 2.2048338983 -1.0738424829 0.8034052947
C 1.1420277035 -0.7795450532 0.3715328819
O 0.1420712604 -1.7615611704 0.184121823
C -0.974776078 -1.1224143941 -0.2488818791
C -0.7469049531 0.1259745402 -0.6746794033
C -0.5870603726 1.3458634216 0.1192186124
C 0.6278073126 0.4726854125 -0.2607561948
H -1.8999910349 -1.6609793946 -0.0997436512
H -0.9635286008 1.3537215508 1.1355325291
H -0.5728744396 2.315641428 -0.3643266786
H 1.3364153043 0.9487201422 -0.9270293341
