14
0
C 1.3784097828 -1.5486523365 -0.3723328632
C 1.5958013484 -0.7212618438 0.6051974678
C 1.8030092364 0.116295191 1.5771004358
C -0.9050530535 1.3181080016 -0.667210321
C -1.8827462053 0.3439127369 -0.0791449067
C -1.5801796499 0.63362382 -1.5200274013
H 1.6671386347 -2.5903200954 -0.3004246135
H 1.0568266386 0.2687955479 2.3480906437
H 2.7251389827 0.6819542337 1.6385301033
H -0.1549946652 2.0572341325 -0.4507547308
H -2.8092963113 0.7121495932 0.3593176665
H -1.5116866306 -0.5759918771 0.371575657
H 0.8954427048 -1.2071552649 -1.2810587164
H -1.8099438124 0.3895711609 -2.5420004212
