9
0
O -1.9433447584 0.8287219638 0.0907061528
C -1.2310124252 -0.1711471562 0.7798780267
C 0.1741548735 -0.2643956588 0.3714370439
C 1.3247546614 -0.3056388341 0.0429892508
C 3.7146408131 -0.4079742758 -0.6387448867
N 2.5884953484 -0.360504776 -0.3194212373
H -1.5042700067 1.6710998685 0.2267004314
H -1.7317480499 -1.1153817 0.5608808982
H -1.2712914564 -0.0241114312 1.8659783202
