14
0
C -1.2910961813 -1.4094947658 0.0199004015
C -0.4477606216 -0.1628571384 -0.066066686
C 0.9701516761 -0.3104970493 -0.539919535
C 1.9664932196 0.7181497057 -0.0772360139
O 1.738714388 1.629732675 0.6667909124
C -0.9630577183 0.9999663448 0.2429278422
N -1.5225944335 2.0690124706 0.4211531824
H -2.3123341599 -1.1792569854 0.320994338
H -0.8748213606 -2.1162925524 0.7438646581
H -1.3339246574 -1.9164527024 -0.948506248
H -1.457334292 2.4339566545 1.3681442775
H 1.3690291243 -1.2802798643 -0.2131104144
H 1.0341556592 -0.3439735763 -1.6364378738
H 2.9882743571 0.5684247836 -0.4849418408
