15
0
O 2.49559496 0.6067751783 -1.5967060057
C 0.6363341584 0.232215076 1.3201088859
C -0.1021538475 1.08984344 0.6119934245
C -1.1177144536 0.0119696346 0.2497631599
O -2.4891732383 0.132120281 0.3005116373
C -0.4283161873 -1.1536777012 -0.4246487405
C -0.2992650159 -0.9371407943 1.0709110176
H 2.0122187481 1.0992577636 -2.2616136013
H 1.6227292166 0.2833534839 1.7642288363
H 0.0384909654 2.1118834607 0.2800053469
H 1.9844923571 0.7119668505 -0.7883166799
H -2.8150960684 0.3411625933 -0.5771773507
H -1.0994799507 -1.9562858996 -0.7153258129
H 0.430228226 -1.0079584053 -1.0707019434
H -0.6803418702 -1.6401089613 1.7963488258
