15
0
C 1.8531297059 0.2480340258 -0.9503315366
C 1.0835830951 0.8688903336 -0.0710989583
C -0.37898555 1.146042342 -0.2646350836
N -1.1522385132 0.7645135519 0.9053922993
C -1.3578610294 -0.6235019898 1.098059084
C -0.9367147712 -1.5763827413 0.3033827181
N -0.5933158771 -2.4842812782 -0.4459224191
H 1.4493087088 -0.1397801901 -1.8802333576
H 2.9124517054 0.1047884809 -0.7752509746
H 0.3587163967 -2.8102565618 -0.2792976394
H 1.5021048083 1.2352023521 0.8626947988
H -0.7305224431 0.6577924839 -1.1862171597
H -0.516465725 2.2227175331 -0.3981782743
H -2.0294742777 1.2621432945 0.9450378955
H -1.8490192335 -0.9190806368 2.0168516075
