15
0
C 1.9267066528 0.2890493029 -0.2302369746
C 0.4496254911 0.338567247 -0.0273244603
O -0.2291669098 1.124232558 -1.0500557969
C -1.3948997175 0.6863753609 -1.4132183195
C -1.6603158853 -0.575612235 -0.616873732
C -0.4897080841 -0.756718822 0.3242269476
C -0.2453041636 0.3807906728 1.2885287968
H 2.3536130301 1.2921305394 -0.1860436649
H 2.3902629981 -0.3130505797 0.5516495285
H 2.1722115553 -0.1498527708 -1.1985591402
H -1.0296960443 1.1147559857 1.4315534226
H -2.6337521409 -0.4844561114 -0.1269098119
H -1.7618533542 -1.3910120542 -1.3401965967
H -0.1263854321 -1.7454417873 0.5693052748
H 0.3533640042 0.1747386937 2.1668205266
