11
0
C -0.9304747871 -0.7832346613 0.6370721925
C -0.5004618572 0.5315905795 0.001118494
C 0.9414241405 0.4916461487 -0.4777472781
C 1.012250991 0.6705056014 -1.772797432
C 2.818741131 0.0826358635 1.1765601639
N 1.9670653241 0.2755132816 0.4013622844
H -0.2941713199 -1.0356039065 1.4863437737
H -0.8779826384 -1.5997874288 -0.0837846819
H -1.9576810568 -0.7056090258 0.994913905
H -0.58426363 1.3696002532 0.6976546853
H -1.1374772971 0.7734922945 -0.8561651067
