11
0
N 1.5714189593 0.1184133542 0.6449741031
C 1.0997679159 1.0493257425 -0.0538100898
O -0.7046331372 -1.1758241301 -1.0364207199
C -1.0546333024 -1.1082857559 0.3559600722
C -1.0661453485 0.0556928891 -0.5209645464
O -0.1434953976 1.1041183849 -0.5588289364
H 2.529357593 0.3280026021 0.9007505733
H 1.6232439957 1.9610204699 -0.3476642591
H -0.2261462418 -1.2546816369 1.0335263052
H -2.0024432706 -1.5756473153 0.6081953318
H -2.001382766 0.4655593955 -0.8886938339
