17
0
C 1.6497670821 -0.5275894393 -0.5152761415
C 0.8905209599 0.3323476597 0.4753767209
C 0.2612507831 1.6564596541 0.0051288342
C -1.0372029698 1.3993847783 0.6831933
O -1.5124206288 -0.7395153401 -1.2544835987
C -1.3533946743 -1.0674086848 0.1144226705
C -0.5599130455 -0.0282604367 0.9027045133
H 1.9277114221 -1.4878039076 -0.0736831428
H 2.5721636473 -0.0321719589 -0.8274474635
H 1.0518275747 -0.7256484872 -1.4064914229
H 1.5023287704 0.4959962314 1.365553626
H 0.7469873058 2.632988144 0.0395083036
H -0.09534575 1.5032499312 -1.0352466287
H -2.2104727655 -0.0848368082 -1.3274610691
H -0.8284086432 -2.0241891072 0.1390102261
H -2.3276341899 -1.2023472415 0.5948210025
H -0.6747918782 -0.2840109872 1.9638262701
