10
0
C -1.7525408144 0.0102841863 0.8480387316
C -1.1439353287 -0.9349152221 -0.0771262596
N -0.6535616936 -1.6721066327 -0.806433497
O 1.2596111551 1.4515051532 0.2371795736
N 1.765137142 0.6914458703 -0.5401649427
C 2.258201629 -0.029889065 -1.2851095207
H -1.0498382405 0.8202105999 1.041093755
H -1.9952332688 -0.4917374231 1.7838623124
H -2.6653629345 0.4169036855 0.4144012034
H 2.6012973546 -0.7692051521 -1.9669303558
