18
0
C -1.8679327872 0.3166686342 -0.5208460336
C -0.6275148781 -0.4627366723 -0.1349897815
C -0.4710703739 -0.7182453846 1.3760468029
N 0.4690890109 0.4131130335 1.4447282041
C 0.6771979789 0.3820468053 -0.0042670897
O 0.7092685635 1.6535972013 -0.5872037567
C 1.9237319162 -0.3413420425 -0.4719918076
H -1.7817033514 0.7193310842 -1.5314284128
H -2.7517359417 -0.32358642 -0.4840259082
H -2.0407269874 1.1506524522 0.1641566837
H -0.5162189635 -1.3436683815 -0.768811985
H 0.091934794 2.2011732252 -0.095115668
H -1.3668075003 -0.5910493087 1.9889050761
H -0.0237868074 -1.6920284319 1.6008741815
H 1.291524671 0.3026397718 2.0231733146
H 1.9439591163 -0.3886261657 -1.5617066416
H 1.9524568814 -1.3591830696 -0.078666696
H 2.8125336588 0.1962136692 -0.1359404821
