10
0
O 2.0683917475 -0.9515738125 0.2403601119
C 0.8965045226 -0.8495066435 0.1012502213
N 1.0392655773 1.6731020234 0.1348681018
N 0.3185209382 0.6712506801 0.0424281221
C -1.0120967109 0.5340275305 -0.1170088977
C -1.2308887383 -0.8382533775 -0.1522144994
N -0.1681433857 -1.6393013374 -0.0308610596
H 1.9983557523 1.3133689795 0.2473580772
H -1.6918866421 1.3636754138 -0.1938175704
H -2.2116520611 -1.2830234564 -0.2709536073
