9
0
O -2.2282067609 -0.9745115343 -0.2727531267
C -1.1045199783 -0.5938230221 -0.1517958657
C -0.7071280484 0.8075257242 0.0896057235
N 0.5050005779 1.176656094 0.2111734897
C 1.4476885666 0.164566611 0.1025406632
N 1.2412839069 -1.0773041393 -0.1011288986
O -0.0702746776 -1.4767738804 -0.2328983045
H -1.5117675809 1.533952778 0.1629059285
H 2.4879689948 0.4459963689 0.2014443907
