9
0
C -1.7338961306 -0.1829516685 0.3706879123
O -0.902052442 0.3742519048 -0.2898320345
C 1.8738983764 1.2653541263 -1.5759531717
O 1.6241036754 2.0307006777 -2.3570345437
C 1.3993622154 -1.1118836122 0.9766901442
N 1.0580957683 -1.8548371654 1.7776722521
H 1.6891622131 -0.4076248002 0.2212807662
H -1.4627901936 -0.9275440039 1.1404653445
H -2.8107544823 0.0262405414 0.2340883306
