14
0
C 1.6701103141 0.4297361118 0.0623951705
C 0.8475125349 -0.0523745049 -1.042954854
O 0.8960129844 1.3363685711 -0.7142930629
C -0.4691373559 -0.7675406926 -0.8667330104
C -1.3219131509 -0.2794512552 0.2978648362
O -1.8111982144 1.0272534137 0.1077151584
H 1.3378127611 0.2984833927 1.0873493486
H 1.3689539577 -0.2838969834 -1.9697008507
H 2.7441088712 0.5195449346 -0.0693252964
H -1.0502834066 -0.6601750569 -1.7869302429
H -0.2601149364 -1.8356196141 -0.7452736692
H -0.764978277 -0.3583866038 1.2421888124
H -2.1951680972 -0.9269857329 0.3940881027
H -1.0498199849 1.58676102 -0.0814884426
