9
0
N -1.6674716445 0.0134107575 0.3164643483
C -0.6210042806 0.0876575915 -0.5033023014
N 0.5182597938 -0.638750134 -0.8409785254
N 1.6271778331 -0.2353149741 0.1236073251
N 1.5086448254 0.4058805815 1.1044529446
N -0.086752977 0.657470557 -1.4763252232
H -1.5262880169 -0.4785406226 1.1814422235
H -2.2726316555 0.816339115 0.356905361
H 2.4859501219 -0.6777058718 -0.2448821526
