17
0
C 3.2180926913 -0.7655794722 0.048019135
C -0.6449216627 1.2238200386 0.5019285628
C -0.3718961171 0.0897858085 1.2050546083
C -0.3847193257 -0.3718372879 -0.2793351926
C -1.9072518408 -0.1716759727 -0.6295966647
C -2.0693718997 1.2969802163 0.0042532382
O 0.0983581977 0.9338831351 -0.6639982525
H 2.6955441562 -1.2958102921 0.8434425123
H 4.1771041524 -0.4094911732 0.4219971975
H 3.3866559833 -1.4378163945 -0.7928045708
H -0.9734890108 -0.2655595971 2.0324027403
H 2.6124717203 0.081761185 -0.2703498218
H 0.1599138513 -1.2294012778 -0.6779935172
H -2.5646412031 -0.8724656098 -0.110089348
H -2.1040922081 -0.2329575341 -1.7020699537
H -2.2516627836 2.0679548012 -0.7406187176
H -2.8203717008 1.3350164267 0.7894720446
