11
0
N 2.6718749602 0.0700586335 0.0544701328
C 1.6857013828 -0.7183991076 0.0525374338
C 0.2685764467 -0.3421671398 0.0139402171
N -0.7446940186 -1.1407320596 0.009617909
C -1.8436036939 -0.3077810116 -0.0325311409
C -1.4195231253 0.9714229543 -0.0515939664
O -0.0637647736 0.9637070304 -0.0221548731
H 2.3630666546 1.0421968557 0.0247500582
H 1.8503775711 -1.7947947251 0.0821724834
H -2.8516845928 -0.6884045642 -0.0459485376
H -1.904934811 1.9311131338 -0.0827697164
