13
0
C 1.920473047 0.3831305325 -0.3674315062
O 0.8704820053 -0.5478447912 -0.1343486969
C -0.1606659991 -0.0877884548 0.60515946
O 0.2467508869 0.4344833904 1.7994597779
C -1.4192057879 -0.1832457121 0.1865685469
N -1.7958632924 -0.5857801034 -1.114457442
H 2.619246822 -0.109187317 -1.0404937396
H 2.4274661294 0.6468326677 0.5613497716
H 1.5310126256 1.289735762 -0.8404751887
H -0.4791747065 0.9232603114 2.1908780852
H -2.2266602815 0.1127131593 0.8454264941
H -0.9925719038 -0.9104091735 -1.634288833
H -2.4882935449 -1.3208262713 -1.0964707295
