15
0
C -2.2569593688 0.4692364572 0.3285690369
C -1.216602827 -0.5902539638 0.1650327014
N 0.0716548357 -0.3221417779 -0.0270243862
C 1.1498125935 -1.0999022377 -0.196887956
C 2.3386589106 -0.2269896005 -0.3751830231
N 1.8165886048 1.1297213906 -0.2801960559
C 0.5790179723 1.0292866116 -0.0919899439
H -3.2237891539 -0.0177248764 0.4531527441
H -2.1134634574 1.1034136903 1.212110868
H -2.3560447768 1.1319830348 -0.5397861778
H 2.8413881691 -0.3311329027 -1.3446158288
H -1.476329004 -1.6374128208 0.1998783197
H 1.0795555625 -2.1733759945 -0.2000500372
H 3.1154420152 -0.350870714 0.3890335002
H -0.1113120758 1.852904704 0.0227382382
