18
0
C -0.7871985452 -0.0070544929 -0.6451363386
C -1.539193825 0.774884311 0.4254984608
C -0.8166783187 0.3382004696 1.6955030995
N 0.5681362931 0.2180872751 1.2611216291
C 0.6723187463 0.0683909858 -0.1667099153
O 1.2930090933 1.2619545877 -0.6633237627
C 1.5174492826 -1.1342811481 -0.5662086891
H -1.1168759564 -1.0505638208 -0.6492266466
H -0.9097598486 0.3899804218 -1.6537960608
H 1.3949760413 1.1746857921 -1.6143010206
H -1.4010439139 1.8463304058 0.2692802216
H -2.6080512066 0.563221605 0.4530485474
H -0.9180047281 1.067359108 2.5028825645
H -1.2273810605 -0.6164974768 2.0550350086
H 1.1349199291 -0.4202587766 1.7918691072
H 1.5891453161 -1.2182571393 -1.6534504396
H 1.0841082653 -2.0610692345 -0.1855593574
H 2.5285194359 -1.0232558732 -0.1695884081
