12
0
O -1.812406205 -1.4033419113 -0.2762064953
C -1.6564208938 -0.5303469803 0.535893699
C -0.4887164404 0.3888591057 0.5518383723
C 0.1697086693 0.7104307276 -0.7172081497
C 0.8676498701 -0.2920467771 0.2450627419
C 2.033267109 0.3426906517 0.7332941234
H -2.3961406921 -0.3685852608 1.3428035654
H 0.7726436707 -1.327346362 -0.0745782873
H -0.451759343 1.1271116745 1.341027457
H -0.2032496263 0.2364246925 -1.6151265953
H 0.6253685896 1.6834153992 -0.8198174902
H 2.8855232919 -0.3428529596 0.5726410587
