14
0
C -1.1833024341 0.4629878357 -1.0010173897
C -0.044487862 0.3144236136 -0.0076067854
O -0.0628826059 1.4109138711 0.9201239689
C -0.0229077494 -0.9418264402 0.8369954376
C 1.2972785364 -0.0479474765 -0.6344832568
O 1.4307310201 -1.1346193514 0.7875306427
H -2.1328067151 0.6053150354 -0.4813761399
H -1.2459165847 -0.4082871062 -1.6521335497
H -1.0113396919 1.3359152851 -1.6359742941
H 0.2149868441 2.2011927388 0.4527896194
H -0.3277771556 -0.8047977227 1.8721881128
H -0.5289106315 -1.7905404778 0.3803247218
H 2.0494985882 0.6946309626 -0.3328711488
H 1.6414404413 -1.9770437672 0.3781910613
