15
0
C -0.6897751977 -0.7482484325 -1.9148363476
C 0.0674381206 0.1173017014 -0.9359896869
C -0.228524581 -0.4865678037 2.6791118011
C 0.3649947443 -0.2813639851 0.2763893491
C 0.6478351629 -0.6908532642 1.4761079559
C 0.4671559416 1.4209046474 -1.3834404181
C 0.7791553154 2.5007815482 -1.8012313944
H -0.0830926618 -0.9326532413 -2.8036131851
H -1.6043396019 -0.2469633713 -2.2371361728
H -0.9503105344 -1.7027614057 -1.460548781
H -1.1253981257 0.0747693349 2.4208313466
H 0.3100606343 0.0590662983 3.456950984
H -0.530044088 -1.4472751265 3.1028837353
H 1.5894496752 -1.2151125288 1.6249044346
H 1.0641541961 3.461412629 -2.1593216207
