16
0
C 2.7069522211 0.6777347103 -1.0433478344
C -0.5041340486 -0.6164889043 0.8643338345
O 0.7447458277 -0.9899014022 1.1944012168
C -1.0316176719 0.0894230139 -0.3557278984
C -2.4176342415 -0.043945814 0.3486603686
C -1.6801744783 -0.7325709228 1.4790556362
H 3.3519800729 1.2887082054 -1.6717852667
H 3.2633889122 -0.2033617736 -0.7218706849
H 2.3980645759 1.2609554439 -0.1762840833
H 1.3446583127 -0.7539435712 0.4830905793
H -0.6849910568 1.1158433759 -0.4971003541
H -0.940727002 -0.4557081629 -1.2986460303
H -3.1340011006 -0.6595772617 -0.1999619856
H -2.8859466407 0.91227981 0.5925124168
H -2.0024997254 -1.1544355971 2.4198475572
H 1.8323410431 0.3773158504 -1.6207514721
