15
0
C -0.5434663497 2.0126310821 -0.2364920211
C -0.303117429 0.5321858506 -0.0887000404
C -1.1906241161 -0.4873980926 -0.6933041866
C -1.2451351932 -0.3867823203 0.6005721318
O 1.0971468916 0.342758097 -0.0181423445
C 1.5712727013 -0.888564208 0.4238653574
O 1.5850532055 -1.8842576856 -0.5607237731
H -0.0289833121 2.389054009 -1.1222863708
H -0.1537770347 2.5487947054 0.6304902944
H -1.6085588981 2.220590897 -0.3339092682
H -1.5579249466 -0.9544282108 -1.5931256292
H 0.6979230852 -2.2383627802 -0.6533103152
H -1.6900474223 -0.7286108503 1.5211481675
H 0.9999529476 -1.2213593541 1.3016729609
H 2.6094728707 -0.7235031391 0.7070430372
