12
0
O 1.8848429939 -1.6205322309 -0.1370610812
C 1.4699995178 -0.3624503202 0.1660783285
C 0.2333586885 0.0899291763 0.0889505442
C -1.1149168736 -0.4583769463 -0.3022509612
O -1.7186010305 0.8138209239 -0.0194141484
C -0.4577074591 1.3987673509 0.3620393723
H 2.2948817496 0.2601409391 0.4907195682
H 1.1359703179 -2.1504382294 -0.4208650638
H -1.2378055664 -0.7418797625 -1.354293837
H -1.5203289618 -1.2533299921 0.334734655
H -0.4666531254 1.7363696841 1.4031230072
H -0.187480251 2.2349964069 -0.2903623837
