17
0
C -1.417897248 -0.5137008309 -0.4339814161
C -0.4600920509 0.1915649017 0.5431558467
O -1.0138509442 0.1930065394 1.8458515895
C -0.153172424 1.6355612586 0.0825808325
C 1.1549847165 1.4576999157 -0.5943435773
C 1.6488915246 0.2069515096 -0.4255091224
C 0.8432313442 -0.5390374741 0.4913659344
H -1.5031814771 -1.5717578103 -0.1864450474
H -1.0845739968 -0.4201318828 -1.4688412385
H -2.4011627029 -0.0536249286 -0.3281400581
H -0.6330274096 -0.5686120129 2.2941857634
H -0.9007141934 2.1140123843 -0.5560480773
H -0.0490702102 2.2544376239 0.9774098866
H 1.6587248868 2.2618031952 -1.1246877378
H 2.6023369157 -0.130898199 -0.8127383215
H 0.9795230115 -3.2736055541 0.0608976068
H 0.9529362579 -3.9372906357 -0.2840088636
