10
0
O -0.2570702292 2.0648879499 0.7824499285
C -0.4508822666 0.9308642178 0.4919332849
C -1.3865676651 -0.1211087099 0.0818563691
C 0.1279856867 -0.3854438746 0.1650788215
O 0.8085770704 -0.5539606773 -1.0839598952
C 2.0485874385 -0.203932188 -1.2173689979
H -1.7931323766 -0.0200688339 -0.9205899004
H -2.0318266321 -0.6235985291 0.792976173
H 0.4929695597 -1.0479975566 0.9408910588
H 2.3842304143 0.2084472018 -0.2306968424
