15
0
C -2.5127930499 -0.5395831805 0.1617394298
N -1.4129043304 -0.1771414243 -0.3927986493
C -0.1302547885 -0.1821240029 0.2515649184
N 0.0430650605 -0.5522285067 1.4975350729
C 0.82305674 0.2875155365 -0.6254208824
O 0.450368236 0.697833725 -1.8983714988
C 2.2585309524 0.375058861 -0.2756826492
H -3.4298288166 -0.5233868575 -0.4090380377
H 0.9277643239 1.4999323278 -2.1231882556
H -2.4959416948 -0.8346624 1.2010660018
H -1.390843185 0.1300647822 -1.3599057508
H -0.6765083937 -1.1860741675 1.821947706
H 2.4066342932 -0.0805862104 0.7017054467
H 2.8732186538 -0.1386947075 -1.0213217432
H 2.6011059993 1.4165212246 -0.2221371086
