10
0
O 2.2892610662 1.397759745 -0.6431393815
C 1.1594717464 1.2173149635 -0.4723853954
C -0.1243377323 1.0511147323 -0.2608158266
C -0.7238212793 -0.3135662779 -0.037258891
N 0.3071195072 -1.2496077284 0.3862399597
H 0.6073762377 -1.0511055773 1.3314669184
H -0.7340514697 1.9442785621 -0.2833169573
H -1.5539475168 -0.2116817316 0.6750930414
H -1.1553438493 -0.6943352874 -0.9678429629
H -0.0281107102 -2.2017944002 0.358676495
