10
0
N 2.122764597 -0.1189295258 0.4030619211
C 1.0668333364 -0.6489334755 0.1925626431
C -0.0949210006 -1.2708118603 0.0780384941
C -1.2976428139 -0.6662041868 0.6460557781
C 0.2230585228 2.2650002668 -1.2168123418
O -1.3492551758 0.4218135447 1.1680896273
O -0.7315106862 2.8360293535 -1.3637515476
H 2.4595248436 0.5946107724 -0.2344537396
H -0.1400552742 -2.2182108578 -0.4406440729
H -2.2050313491 -1.2940870312 0.5615762382
