13
0
C 1.3382468954 -0.3917502954 -0.4207259603
C 0.3464896614 0.1975419105 0.6325308224
C -0.144292782 1.096650698 -0.4939756402
C 0.7389437145 0.6204056727 -1.367369169
C -1.7216026613 -0.8128651588 0.9879116464
N -0.4956717729 -0.7857601281 1.2678434082
H 1.132662945 -1.4368209198 -0.6577152718
H 2.3985361821 -0.2756788555 -0.1883281166
H 0.8696242311 0.7379350186 1.4256914882
H -0.8920917781 1.8781886526 -0.5509485476
H 0.9790926512 0.8783623675 -2.3917989724
H -2.3543612104 -1.5623223828 1.4601264598
H -2.1987950762 -0.1209805796 0.284935853
