11
0
C 1.2399763059 0.3247270367 0.5433701089
C 1.2078991958 0.787795503 -0.7298504996
C 0.0046609704 0.4778421311 -1.2710334065
C -0.7623621081 -0.4787023655 -0.3949954677
C -0.1243557883 -0.125222286 0.9989860669
H 2.1363217302 0.100891227 1.1140176448
H -0.4617099619 0.9813578667 -2.11265796
H -1.8399038712 -0.3079192223 -0.4633767353
H -0.5885000788 -1.5365779779 -0.6153304638
H -0.7210066672 0.6526619236 1.4852539073
H -0.0560307267 -0.9636978362 1.6967808049
