16
0
C -1.887574932 -0.2145795545 -1.3679743049
C 1.0500840756 0.0196380343 0.7112434536
C 1.6917656274 -0.8893172826 -0.2545010252
C 0.6947988507 1.4552570776 0.9731735788
C 0.4796315362 0.2500691329 1.8436387243
O -2.2524228411 -0.2697330303 -0.0085097255
H -1.1659680018 0.5857995795 -1.5722718782
H -1.4678627894 -1.1635148909 -1.7243329875
H -2.7922993087 -0.0093232782 -1.9400052492
H 2.7345502953 -0.5992274495 -0.4022616537
H 1.200222073 -0.8232596587 -1.2272561109
H 1.6598221501 -1.9231634581 0.0892544145
H 1.4835049149 2.1646761885 1.2228363229
H -0.1550615204 1.9059426176 0.460665359
H 0.1189666079 -0.1007884869 2.7948505646
H -1.4534257374 -0.3700015408 0.5170565173
