12
0
N 0.7090477824 1.0257851777 1.0598948585
C 0.3365720168 0.3410497506 -0.2153742196
C -0.7186699462 1.1171294329 -0.732784998
C -0.4487598922 0.0679310591 1.0378221796
C 1.2571438886 -0.6023377305 -0.7977261841
N 2.0049304606 -1.3148375695 -1.2967266608
H 1.5199706332 0.7032644257 1.5717059133
H 0.5562800608 2.0315186615 0.9838742769
H -1.2594626526 0.5008458625 -1.4684744853
H -1.4990871706 -2.4529478028 -1.0214455258
H -1.4108070466 0.5805390243 1.1385133486
H -1.3371341344 -2.2808602914 -0.3134765033
