11
0
N -2.1160277286 -0.4346121169 0.0611947739
C -0.6743059067 -0.316372377 -0.0111456846
N -1.0773206316 -1.5244733909 -0.1893074201
N 2.1166209666 -0.6833002872 -0.2476236021
C 1.6205618581 0.4702890963 -0.0237394098
C 0.2019115285 0.7019152321 0.1059683534
H -2.6833049093 -0.1734803595 -0.7325702764
H -2.5750966334 -0.4591882754 0.9604931352
H 3.1289813116 -0.6341800192 -0.3058544377
H 2.2429729848 1.3669822426 0.0843623786
H -0.1849938402 1.6914402552 0.2978911895
