13
0
C -1.7613028099 -0.2816304041 -0.3124509118
C -0.5481391512 0.0657102393 0.524551501
O 0.422343596 -1.008509215 0.4393161773
C 1.5211105604 -0.4402557819 0.0223435896
O 2.5240505043 -1.2571869088 -0.1107093127
C 1.5479001099 0.9638966375 -0.2455052764
C 0.260625751 1.2482008665 0.0746592242
H -2.2270051631 -1.2016736876 0.0410828692
H -2.4922398116 0.5246712439 -0.2385328181
H -1.4820310273 -0.4009717973 -1.3598392362
H -0.8182474985 0.1360700761 1.5830679432
H 3.2581656265 -0.7069058774 -0.4209003574
H -0.2123736866 2.2257296089 0.032095608
