12
0
O 1.6428168568 -0.6303894374 0.6266031601
C 1.6769154729 0.7827276209 0.3501788833
C 0.460231947 -0.002968044 0.2782342418
C -0.458404261 -0.4529558781 -0.8404508948
C -1.5459710532 -0.3439294145 0.2352697619
O -0.5750178219 0.0736515703 1.2185541966
H 1.8374535759 1.4107029349 1.2212188752
H 2.211384112 1.0665374346 -0.551963778
H -0.2452378564 -1.4590220253 -1.1949969882
H -0.5466193507 0.2332819037 -1.6797325773
H -2.0284220892 -1.2784674173 0.5261387257
H -2.2985405323 0.4284237523 0.0697383938
