9
0
C -1.6429660054 0.539784725 0.3323629107
N 1.7942722697 -0.4092244549 -1.1031033118
C 1.7846639404 -0.7605060191 0.0525553834
O 1.6446992153 -1.0741705022 1.1600870452
H -1.3063849949 -0.2213579869 1.0348357408
H -1.5565698524 1.5215714206 0.7958217319
H -2.6832168779 0.3540101937 0.0686991302
H -1.0286208751 0.5066963549 -0.5665273204
H 2.6043591803 -0.3737097313 -1.69366031
