11
0
O 0.5466500246 1.7208429353 -0.2479345039
C -0.0242412929 0.4605434224 0.567374261
C -1.184335526 -0.3116024437 -0.0846636892
N -0.2481832436 -1.4411576091 -0.1714330488
C 0.8382949152 -0.6228753369 0.1405994407
O 2.036820308 -0.7163958296 -0.0524633859
H 1.4426901341 1.4008187864 -0.4917442893
H 0.6568676479 2.4115298226 0.4137801319
H -2.0554352229 -0.4610256062 0.5561052499
H -1.4999643568 0.0301646886 -1.0739626929
H -0.4065763874 -2.3981348296 0.1010895263
