12
0
C -1.4785403198 -0.1316516915 0.1406591474
O -0.7464609622 0.277128507 -0.998911254
C 0.5235667133 0.7374219887 -0.6116577222
C 1.2628803819 -0.3847056187 0.063319091
O 0.4967982029 -0.897518649 1.195792735
C -0.7909409435 -0.803734863 1.2869418029
H -2.0018261576 0.7226337425 0.6023946945
H -2.2597158158 -0.8200954455 -0.1916723488
H 1.0529380472 1.0615764693 -1.5083213723
H 0.4360890565 1.5991683101 0.0663863668
H 2.217095168 -0.0678619925 0.482465193
H 1.4217946292 -1.2193837575 -0.6200423332
