16
0
O -1.8893823567 0.5158596807 0.7501947986
C -1.4933704815 1.148131394 -0.1895813011
C 0.3732462281 -1.4972035652 -1.1549686678
C 1.0332280366 -0.9090753125 -0.1703585329
C 0.9381724407 0.5267428206 0.2556192956
C -0.0444958689 1.3818447704 -0.5251299874
H -0.8396389142 -1.278442047 2.3992316573
H -2.2159481398 1.6420433104 -0.8733129715
H 0.5203420152 -2.5468652759 -1.375453265
H -0.3460420137 -0.972462923 -1.7740822351
H 1.7268276138 -1.5070896366 0.4151997504
H -0.4508142301 -1.7142894627 2.864165707
H 0.6716484245 0.5535842571 1.3165847679
H 1.9357739599 0.9718934417 0.1879509015
H 0.1318572166 2.4465615279 -0.3274678327
H 0.0810840696 1.2703520203 -1.6070870847
