15
0
C -1.5293110372 -0.6723939723 0.7349158235
C -0.1877147516 -0.3367307103 0.1010343253
C -0.3819802366 0.615621957 -1.0890703559
N 0.6512484269 0.3307711632 1.0782853334
C 1.7946419206 -0.1436468036 1.2996749568
C 0.8641194625 0.8486966683 -1.8132770161
N 1.8547494813 1.0027613157 -2.3705873352
H -2.01255698 0.2343328579 1.1027872811
H -1.3878552973 -1.3456399436 1.5806055343
H -2.1894797918 -1.1597819203 0.0151217416
H 0.2862636468 -1.2581182695 -0.2692952304
H -0.7632373819 1.5729334586 -0.7271264758
H -1.1130600843 0.2016663239 -1.7864778656
H 2.4440119457 0.3510116348 2.0187962576
H 2.1823956767 -1.0386767598 0.7984570255
