19
0
C -2.7037027666 0.0021695428 -0.1706448932
C -1.3488320917 0.5694304564 0.2309456413
C -0.2155542652 -0.4381346179 0.0630658388
C 1.1539794127 0.0958367821 0.4832906424
C 2.2203428012 -1.0150748009 0.5080434927
C 1.7793261849 1.1875926115 -0.3448382115
O 1.2682010956 1.15405273 -1.5530483175
H -2.7080047587 -0.2977891373 -1.2215091231
H -2.9539085291 -0.8797047956 0.4248025957
H -3.5011463073 0.7341202224 -0.0300175838
H -1.3838858517 0.8991130786 1.2748204288
H -1.1376287814 1.4621713807 -0.36434878
H -0.1750271331 -0.77802467 -0.9764084917
H -0.4385795013 -1.326098727 0.665342608
H 1.0947869886 0.5025086805 1.4991435411
H 2.3125868225 -1.4818926736 -0.4754342125
H 1.9330345367 -1.785750092 1.2243385589
H 3.1976598723 -0.6242775536 0.7932128683
H 1.7130092717 1.8234185831 -2.0825696026
