16
0
C 2.5214840153 0.4426240139 1.9443698149
C 1.7759683906 -0.6867360025 1.2915851955
C 0.9137866134 -0.5464645106 0.3267787373
C 0.0433289659 -0.3994135806 -0.6314464317
C -1.4049128542 -0.1810687597 -0.4016736549
C -2.2003182374 0.7178849848 -1.2694346659
N -2.3112765736 -0.7277493484 -1.4106922999
H 2.2338805183 1.4017523838 1.5153113208
H 3.599582202 0.3162860767 1.819118899
H 2.3200539623 0.4694175332 3.0179431342
H 1.9786032962 -1.692653373 1.6524819206
H 0.3682130064 -0.4404567551 -1.6679910327
H -1.7118763309 -0.2441587934 0.6375412972
H -1.718303922 1.2209530444 -2.1000647974
H -3.0168422448 1.2674139682 -0.813778233
H -3.1599218073 -1.0740328818 -0.9822772038
