9
0
C -1.906740872 0.2796555118 -0.1816638014
C -0.502604818 -0.0114110392 0.0450738685
C 0.6700949295 -0.2385296819 0.225537398
C 1.9701822233 -0.6549568045 0.5979758017
O 2.8776539809 -0.0310935161 -0.1213994243
H -2.1750082178 1.1976119038 0.3454435462
H -2.5458137921 -0.5232301919 0.1881979445
H -2.1071783204 0.4348916541 -1.2428057926
H 3.7407378866 -0.346674836 0.1654684594
