13
0
N 2.5729263532 0.2687197883 -0.5368983644
C 1.5818028771 0.5211157067 0.1736215838
O 1.0569962353 1.4806216015 0.945883975
C 0.3063260342 0.2033358776 0.7372030921
C -1.3835567628 -1.0781868075 -0.5730495423
C -0.9712785309 0.2922896193 -0.0440178466
H -0.6213212255 -1.483768019 -1.2403695381
H 3.2300882946 1.0459080423 -0.5430312784
H 0.284605031 -0.4035002998 1.6395772349
H -2.3189600446 -1.009786799 -1.1288019344
H -1.5334126664 -1.7917529157 0.2400226674
H -1.751966414 0.7020337855 0.6026649795
H -0.8302431812 0.9936694198 -0.8687650287
