15
0
O 2.8826687658 -0.805261347 0.782466677
C 1.7233124552 -0.7319250496 -0.0062311828
C 0.5008669444 -0.728168963 0.7517115625
C -1.0902065068 1.5682359498 -0.3429430929
C -1.7279498697 0.1981152325 -0.1429153736
C -0.7387771123 -0.9086146727 0.0931028909
O -0.9591439767 -2.0992511022 -0.1174628897
H 3.6443726834 -0.8844042294 0.2052660132
H 1.6634129863 -1.5452620324 -0.7491131908
H 1.6847795628 0.2140193877 -0.5869335917
H -0.4596950837 1.844058235 0.5059638378
H -1.8545167586 2.3382595104 -0.4455999
H -0.4766991802 1.594081827 -1.246204042
H -2.3403057242 -0.0999138794 -0.9960522707
H -2.3882411858 0.2076311334 0.7294265529
