15
0
C -2.6340981743 -0.0798929007 0.1844232189
C -1.2476919469 -0.0964003616 -0.3602080244
C 1.0511252763 0.2220368001 -0.318094753
C 1.6113638701 1.5795406965 -0.4299696334
N 2.0652556417 2.6275229011 -0.5320865061
N -0.257724868 0.3045714109 0.3094977524
C 1.975249925 -0.6666826527 0.5122784788
H -2.6381846085 0.3060443347 1.2017326804
H -3.2742714875 0.5439499846 -0.4441757694
H -3.0579540702 -1.0869854944 0.1718249934
H -1.1242039458 -0.4756088643 -1.3858239196
H 0.9870400132 -0.1746757932 -1.3424096223
H 1.5644254188 -1.67580342 0.5474325523
H 2.0475579425 -0.2821141666 1.5288485231
H 2.9716620137 -0.7031284743 0.0719330289
