10
0
N -1.9682782713 -0.1410206061 -0.0936747609
C -0.593215762 -0.1330427933 -0.0760559934
N 0.089771997 -1.1832132807 -0.4854666564
O 1.3912711365 -0.9284756404 -0.4415503033
C 1.5269506337 0.4195926946 0.0664737725
C 0.219092749 0.9759371382 0.3221648411
H -2.3890274846 0.5328167119 0.5213661483
H -2.410197203 -1.0444171612 -0.1003907499
H 2.1341017644 0.3699052286 0.9768422814
H 2.0816874405 1.0049257087 -0.6748375794
