16
0
C 3.1617443475 -0.1996215099 0.03822819
C 1.6601217569 -0.2502676972 0.1992576909
N 0.9490744914 0.6161275516 -0.5622711791
O 1.1293971431 -1.0321213007 0.9641762816
C -2.0788789108 -0.4993932719 0.6338606715
C -3.352614344 -0.3680997046 0.5538165576
C -2.5717223483 0.5454891759 -0.3405011196
H 3.6127876956 -0.1117825763 1.0256306937
H 3.4941068781 -1.1445795395 -0.3923908429
H 3.5060176034 0.6197372198 -0.5924847817
H -0.0568385283 0.6100486288 -0.5008487415
H -1.1903387049 -0.9606702052 1.0378228912
H 1.3948029148 1.2545620544 -1.1917225436
H -4.3392506176 -0.6600885099 0.8653349319
H -2.5393349456 0.346591175 -1.4125081009
H -2.4922844313 1.6036655099 -0.0879525991
