14
0
C -1.4826868952 0.9385041387 -0.3911274718
C -1.2109071757 -0.487070905 0.0588903873
C 0.2404548147 -0.840431485 0.1762329131
O 0.4114396768 -2.1382258222 0.5868393341
C 1.2361210923 -0.0316657379 -0.0742565627
C 2.2299621473 0.7716703075 -0.3271775524
H -1.0640311109 1.6620820444 0.3102736454
H -2.5565781981 1.1163757886 -0.4599591219
H -1.0440238983 1.1341167431 -1.3710160421
H -1.6649972423 -1.2025146015 -0.6337906609
H -1.6720302915 -0.6770093075 1.0331893928
H 2.6605906122 1.4044599742 0.4436234688
H 1.3514720078 -2.3246525322 0.6477814551
H 2.666414461 0.8425473949 -1.3194701849
