15
0
C -1.5830237077 -0.4295048825 -0.7380605329
C -1.5447259395 -0.2424005636 0.7527115877
C -0.4659385471 -0.7210569153 -0.1736428792
C 0.9330016088 -1.1900721652 -0.2354298717
C 1.9182547161 -0.2321528305 0.3791949345
O 1.7914759999 1.1727336291 0.0133876824
C 1.5230899085 0.9197447478 1.2444349046
H -2.1861823738 -0.3519224659 -1.6250194835
H -1.2604835512 3.0714129743 -0.8600852745
H -1.4883143216 0.7633491955 1.1679672263
H -2.0543174569 -0.9568258037 1.3989109021
H 1.016736806 -2.1298441859 0.3216754436
H 1.2108504524 -1.404330433 -1.271284955
H 2.9529588686 -0.5562456385 0.4156584749
H -0.7503314624 2.5431493375 -0.7335691592
