10
0
N -0.3943981899 1.4327085079 -0.6565429959
C -0.4101358906 0.5901962283 0.404147301
O 0.0692100173 0.8282881686 1.4825522829
C 2.1612407463 -1.3339375564 -0.0450848895
O 3.0307969203 -1.6272452883 0.6009067892
C -1.1259593299 -0.7402879209 0.0995007813
O -1.2886417514 -1.5798447154 0.9273839133
H 0.073952856 2.3171804064 -0.5680671055
H -0.7600478397 1.1673015271 -1.5520605914
H -1.4840165385 -0.8728623573 -0.9447264854
