14
0
C -1.6803263966 -0.0616395917 0.3417291387
C -0.3814007064 0.1752911962 -0.4158610203
C 0.7237925838 0.9001652294 0.3470481826
C 1.8860503642 -0.0392366537 0.1842657158
N 1.6762620614 -1.1309683476 -0.4315830514
C 0.291534455 -1.1432922352 -0.813538232
O -0.2363145512 -2.0654514719 -1.3568699345
H -2.1832239647 0.8813025148 0.5613818491
H -1.4935536272 -0.5768847207 1.2867371607
H -2.3507410508 -0.6832960578 -0.2516945442
H -0.6026327292 0.6965653213 -1.351370945
H 0.9660757379 1.8898388202 -0.0457185384
H 2.8757917711 0.1859261206 0.5762733573
H 0.4947820528 1.030710876 1.4090208616
