13
0
O -1.4606382965 -0.8802015766 1.8768877756
C -0.5179576162 -1.1042437057 0.895282167
C -0.3784625012 1.4470922378 -1.2683999377
N 0.7649669447 0.7759464746 -1.1434846748
C 1.2267890092 0.0188644323 -0.1647141617
O 0.4804342139 -0.083351205 0.9641972526
H -1.0299360064 -0.9307115658 2.7334903431
H -1.0349248525 -1.060479959 -0.0666146156
H -0.0185476754 -2.0754841124 1.0097369348
H -1.0653956143 1.4650679109 -0.4400609209
H -0.5364195607 1.9992396563 -2.1774276499
H 1.3905351178 0.8314510602 -1.9356005439
H 2.2283378376 -0.3780106477 -0.2123349688
