16
0
C 1.1201604832 1.1881462192 -0.3181984845
C 1.0075489113 -0.0491103633 0.5095548347
C -0.4294838294 -0.483166581 0.9406993358
C -1.2330850417 -0.4076738706 -0.3613580331
C -0.1850601404 -0.5625292712 -1.4741222698
C -0.5806697321 0.6129931959 1.8858539916
N 1.1030946856 -0.1170911924 -0.9371189428
H 2.0726042873 1.7012253434 -0.3633319298
H 0.2459502743 1.824176112 -0.3894678948
H 1.8378775121 -0.4194411818 1.0950230094
H -0.3466523675 -1.5002202464 1.3382931859
H -2.00290583 -1.1781540209 -0.412614207
H -1.7348153733 0.5595121462 -0.4071102296
H -0.0641050047 -1.6095981656 -1.7588828489
H -0.0383767459 0.3124529724 2.8045127672
H -0.427297089 0.001267904 -2.3765662847
