13
0
C -1.7557183268 -0.9880618431 -0.2393194306
N -1.0682233973 1.5444112043 0.1539944424
C -0.1517622536 0.6966429817 -0.0224090855
O -0.3857908272 -0.6008250441 -0.2285628055
O 1.1564114665 0.9881547911 -0.0247803583
C 2.1055825881 -0.0533711506 -0.2272535587
H -2.2904651507 -0.4696266334 -1.0349960073
H -2.2255213621 -0.748130781 0.7143058002
H -1.755203292 -2.0620630885 -0.4106307341
H -0.6728963066 2.4665932001 0.2921995289
H 2.0245827806 -0.8157799468 0.5478799487
H 3.0780505727 0.4299898506 -0.1714967743
H 1.9795305083 -0.5178825405 -1.205746966
