16
0
C 1.957791183 0.3083607177 0.019023493
C 0.627655718 -0.3957034769 0.1462137948
C -0.4905780146 0.3137490572 1.0130819303
C -0.7642571477 1.0301757508 -0.3490447759
N -0.3240887963 -0.2348936027 -1.0088130051
C -1.3995635704 -1.1049309458 -0.46993844
C -1.5114766583 -0.7446590936 0.9893030316
H 1.8680640635 1.3754374082 -0.1804904328
H 2.5240298044 -0.1413316443 -0.7980266565
H 2.5302389403 0.1837591024 0.9396948837
H -0.2806261575 0.8401282198 1.941074309
H -1.7854467944 1.3391933958 -0.5765658377
H -0.0799758697 1.8519876373 -0.5420823748
H -1.1683270298 -2.1677825295 -0.5890980683
H -2.3564921541 -0.9343143989 -0.9741768885
H 0.8080404833 -1.4468115974 0.3882000372
