13
0
N -2.4849350828 -0.140792798 -0.0396660061
C -1.1527922667 -0.4009304428 0.2045875208
C -0.2433628678 0.6523384594 -0.3292295368
C 1.0382127111 0.6853238069 -0.0908084134
C 2.311579257 0.6979182127 0.1806634499
O 3.2934925525 0.078780536 -0.5287677893
N -0.68366493 -1.3940155095 0.8443523079
H -3.1448755831 -0.8841606637 0.1040549452
H -2.723361425 0.5139934663 -0.7620617233
H -0.6928805746 1.4286796846 -0.9455830724
H 2.6989320917 1.233060597 1.0390167265
H 2.8910506371 -0.4643202606 -1.2117106357
H -1.4201855193 -2.0231690883 1.154050227
