16
0
C 1.6859419175 1.1866261851 0.9357650268
C 0.5926477352 0.3035077577 0.3958159845
C 0.853997458 -0.8407690947 -0.1705696965
C 1.1169797887 -1.9821040024 -0.7376017964
C -1.8841523093 -0.1169574845 0.0830886748
C -0.8176834276 0.8326223822 0.5306840616
N -2.7487977022 0.2223634823 -0.7721466805
H 1.6740155567 2.1569837173 0.4322623244
H 2.6670674761 0.7360941539 0.796349229
H 1.5359308482 1.3714503046 2.0029994002
H 1.160638419 -2.9004322204 -0.1623245988
H 1.2993113444 -2.0494575309 -1.8045265691
H -1.8643844294 -1.108883925 0.5503443357
H -0.9223541434 1.7640049596 -0.0317581157
H -0.991695617 1.0765676379 1.5867942279
H -3.4024219149 -0.5377963231 -0.9482518078
