16
0
C 0.9072277839 -1.1959828828 -0.6753674147
C -0.5476829038 -0.7180094782 -1.0490616289
C -0.0893532178 0.7809185409 -0.9950693868
C -0.3499042369 1.7066065509 0.2278794942
C 0.8159166481 0.9735621443 0.8956478482
C 1.0382286114 0.2202787834 -0.1902059748
H 1.0187112989 -2.0040285724 0.0467473354
H 1.4933456416 -1.4108598362 -1.5702075605
H -0.9312239518 -1.0647500579 -2.0088778596
H -1.2586390955 -0.9617934019 -0.2595785414
H 0.0663727022 1.2379522288 -1.9713886428
H -0.2627992612 2.7803545051 0.0451821492
H -1.3036631688 1.5099721937 0.7249246713
H -0.6187120732 -1.224312537 2.2287337059
H 1.1128109736 0.885377773 1.9338207763
H -1.0468877509 -1.6739489536 2.642173029
