19
0
C 2.5585446267 0.1279901005 0.8745835244
C 1.209644067 0.6243582847 1.373780577
C 0.0586692005 0.137618044 0.493459421
O -0.0058025677 -1.2586035463 0.4607361832
C -1.2513852741 0.7130617762 0.9668896724
C -1.9018097905 -0.6080361075 -2.4991185139
O -2.186363582 0.0186269574 1.2653448288
H 2.5733877071 -0.9612231925 0.8333948182
H 2.7691843652 0.5062497164 -0.1286273858
H 3.3629885313 0.4564560679 1.5339941287
H 1.0323664961 0.2720516351 2.3943491313
H 1.1953586896 1.7190601127 1.4012849504
H 0.2105775247 0.5289994905 -0.5271210114
H -0.9009367074 -1.4994979134 0.7356612524
H -1.311662068 1.8162199149 1.0292026463
H -1.097344996 -1.1653398994 -2.0203240081
H -2.3240298148 -1.2003040414 -3.3093948155
H -1.5128713176 0.3259200599 -2.9041889932
H -2.6787390898 -0.3932944598 -1.7662284064
