14
0
C 1.4401131986 0.2556654215 -0.8080730053
C 0.4069495744 0.1336161982 1.2980481637
C -0.9048751195 0.7659755265 1.1908295487
O -1.5235934561 0.5321972627 -0.0643358951
C -0.9307176562 -0.655359438 -0.5572438724
C 0.4876023692 -0.6366495697 0.0280875442
H 1.5334479914 -0.1799899603 -1.8034447667
H 2.4258513342 0.3161528055 -0.3508490245
H 1.0418523382 1.2658164799 -0.9199392544
H -0.9624052876 1.8215808796 1.4584228464
H -1.4213563423 0.2085838339 2.0085115421
H -0.9649267244 -0.6300832185 -1.6474579695
H -1.4863290362 -1.5362093207 -0.2063616823
H 0.944172816 -1.6200969004 0.1426928251
