13
0
O 0.5045972806 -0.7464412344 2.721136629
C 0.2805705833 -0.5498684958 1.5677273033
C -0.7137621595 0.3240567955 0.7957847608
N -0.40735694 -0.4506606485 -0.4467374212
C 0.990301324 -0.19670488 -0.7156999121
C 0.6520635754 -1.2343275189 0.2915776745
H -1.5543582738 2.1028184471 -2.2582252811
H -1.4344948654 1.3849174965 -2.0932128858
H -0.5298582784 1.39654617 0.7195150314
H -1.7349057444 0.1421359923 1.1311925511
H 1.4282809458 0.7433791525 -0.3942013386
H 1.3298191688 -0.5585293971 -1.6781937177
H 0.8375253836 -2.2891148791 0.1381396065
