21
0
C -2.7981097247 -0.4096654997 0.8463354268
C -1.9261748889 -0.0534164725 -0.3504289524
C -0.4442161817 0.0100869931 -0.0029997865
C 0.4388160435 0.3633643752 -1.1944142432
C 1.9243641766 0.4333668001 -0.836077977
C 2.4645185278 -0.9123094286 -0.4425558442
O 3.0584555702 -1.1528813966 0.5727242222
H -3.8546922625 -0.4463734945 0.5754073455
H -2.6841035937 0.3251432284 1.6469359571
H -2.5242036612 -1.3856498503 1.254001878
H -2.0798795793 -0.7884214982 -1.1477899457
H -2.2427007639 0.9111036032 -0.7617034485
H -0.2856421808 0.7467203881 0.7923598872
H -0.1293577412 -0.9523335312 0.4178403113
H 0.1274895049 1.3257555967 -1.6095431955
H 0.2904128098 -0.3731936958 -1.9927060886
H 2.112464245 1.1405286174 -0.026092152
H 1.5891031582 0.5905488462 3.0637570811
H 2.2740889419 -1.7224737585 -1.181776613
H 2.4974584874 0.7604398696 -1.7113753857
H 2.0157501125 0.1740323077 2.6147575232
