13
0
O 2.4928996606 0.2403702086 -1.39389767
C 1.5465811301 -0.3472736116 -1.0750261968
C 0.5233914079 -1.1335933127 -0.8252201776
C -0.5782395362 -0.8883320274 0.1718574481
C -0.8862891037 0.5898123934 0.3543564449
N 0.3334628932 1.3025240163 0.7001310549
H 0.5443680407 -2.0544317078 -1.3955339623
H 0.6192964486 1.1149695028 1.6516801708
H -1.4812132377 -1.4017321426 -0.1659884781
H -0.3235463571 -1.3277463729 1.1444984798
H -1.2523684729 0.994924343 -0.5920659383
H -1.6905415398 0.7064716306 1.0936451899
H 0.2391976662 2.3013820803 0.5913596346
