12
0
C -1.6885511283 -0.4029507876 0.0260285979
C -0.2390118318 -0.072313012 0.0013759849
C 0.4190884287 1.0958755536 0.1350057288
N 1.7675429118 0.7918018262 0.025253901
C 2.0182999958 -0.5233923556 -0.1732570729
N 0.7551450618 -1.0218162116 -0.183266392
H -2.2784190694 0.4950241517 0.2038847442
H -1.9190205193 -1.1190567009 0.8183335469
H -2.0153392879 -0.8366848382 -0.9220942039
H 0.0451176604 2.0929354668 0.2945962034
H 2.5065863072 1.4662996659 0.0868637311
H 0.5771494711 -2.0009917583 -0.3137467695
