11
0
N 1.7589660875 -0.1209930426 -0.1430186735
C 0.3567838131 -0.1094509491 -0.0469979516
C -0.3567216481 1.118150554 -0.4092395419
N -1.6031690698 1.2487378994 -0.2235011236
C -1.0111615647 -2.1493410961 0.2961307174
N -0.3061565545 -1.1499262763 0.2639653182
H 2.1501412489 -1.0417745755 -0.0195414353
H 2.2155543413 0.5395967733 0.4692760419
H 0.2837446378 1.8874344409 -0.8537158688
H -1.9264471122 2.1503711583 -0.5625177384
H -1.4076281794 -2.4125678862 1.2843412555
