12
0
O 0.527607316 -1.1500276026 -1.8202860879
C 0.5850925222 -0.367764479 -0.9274443811
C -1.4945983488 -0.2774956033 0.6221438295
C -0.419097916 0.4638766683 -0.1328042279
O 0.6697933711 0.9284349964 0.6940103887
C 1.675093699 0.2183740314 -0.0415560552
H -1.070299269 -1.1089939692 1.1863399731
H -2.2322833232 -0.6697471087 -0.0798638565
H -1.9983845336 0.3948323884 1.3172968797
H -0.8391353467 1.2871341709 -0.7228692692
H 2.2273613156 -0.5005051915 0.5697695895
H 2.3748555134 0.8806336991 -0.5604717824
