15
0
C 2.2363735607 -0.2924982938 1.0077840477
C 1.8004000397 -0.9167314972 -0.0730506893
C -1.89795279 -0.8575472696 -0.7291461409
C -1.9953473618 0.4090635494 -0.9213736875
C -1.8673828681 -0.0130992249 0.5116483984
H 1.690284252 -0.3273956119 1.9437807193
H 3.1568978173 0.2800829092 1.0024038392
H 0.7067851883 2.0399982419 -0.4113706364
H 2.3446049658 -0.8818183598 -1.0098812514
H 0.8771052615 -1.4846111412 -0.0671500121
H -1.8644582283 -1.8561764553 -1.127111214
H -2.0978137356 1.2420353418 -1.5932902284
H 0.559522971 2.7552145955 -0.5641608273
H -0.9230217577 0.1440882028 1.0322224078
H -2.7407553151 0.0195710131 1.1616122751
