10
0
N -1.592604715 0.0591437064 0.3366759063
C -0.4455418095 0.6891450424 0.0215691573
O -0.3294891491 1.8831651911 -0.1336991363
C 0.7694483374 -0.2184359285 -0.1405840828
O 0.4993574465 -1.5224930169 0.0630713006
N 1.9161477808 0.1901651174 -0.4361225031
H -1.6189264158 -0.9373140573 0.4503933047
H -2.4266159534 0.6056490006 0.4545090126
H 1.3239083532 -2.0066315545 -0.0636844259
H 1.891849125 1.2021454993 -0.5440565334
