17
0
C -2.5201976182 0.4591042128 -0.9904215428
C -1.4282007653 -0.1810855705 -0.2489323058
C -0.1144339547 0.1742345728 -0.777846515
C 1.0904405224 -0.0804236957 0.0914142491
O 2.2416901545 0.2514200475 -0.6393610698
C 1.1090387038 -1.2242031971 1.0442193863
C 1.0262580314 0.1989027699 1.5562588801
H -3.4423952201 -0.1224912653 -0.9976029796
H -2.7283750782 1.3115126181 -0.3188312686
H -2.2936774134 0.8728511831 -1.9836122981
H -0.0479735287 1.1719926124 -1.2397275251
H -0.0828916408 -0.5289017571 -1.6370170172
H 3.0145956699 0.1237749904 -0.0870163233
H 2.04750794 -1.7507013687 1.1711599636
H 0.2159573531 -1.8314790655 1.1166398713
H 1.906258583 0.6200157385 2.0279494366
H 0.0819432615 0.5261871744 1.9743090582
