11
0
C 2.7529715079 0.1289097826 -0.7925402728
C 1.6361591976 0.2990861659 -0.4038445439
C -0.1526519287 -0.0925641838 1.386879768
C -1.3916017644 -0.5610075313 1.044494895
N -1.6274619727 -0.3494950606 -0.3168975709
N -0.7243345831 0.2170150491 -0.9739141744
C 0.2771477415 0.4933872589 0.0740200876
H 3.7508397605 -0.0246266673 -1.1294390394
H -2.1637382765 -1.0596626366 1.6122045567
H -2.4787638927 -0.6004049777 -0.8121665839
H 0.1078912106 1.5731868011 0.2608968782
