12
0
O 2.8816091514 1.2093977847 0.2083675961
C 1.8766221707 1.7802486551 0.2348690933
C 0.5214948441 -1.1727225299 -0.5833856463
C -0.3479923186 -0.7918505357 0.3408857374
C -1.6274923831 -0.066329212 0.0741925772
O 0.8824647168 2.3707940654 0.2652575181
H 0.348425529 -0.9766543918 -1.6370483129
H 1.4333021877 -1.6963571451 -0.3237557919
H -2.4830907526 -0.6419282896 0.4364949033
H -0.1323687346 -1.0158674695 1.3836661828
H -1.6430530008 0.8939904671 0.5950087434
H -1.76508741 0.1207126013 -0.9915866005
