11
0
C -1.5011293481 -0.3265403128 1.1376271113
C -0.9141619474 0.8391337651 0.9820807618
N -0.394173479 1.9221548379 0.856195319
O 1.5608635666 0.7150342805 -1.0697968084
C 1.5442698483 -0.445128098 -1.3829543932
O 0.6974804664 -1.3588002776 -0.9406945042
H -2.3581449237 -0.5812247205 0.5300761868
H -1.2128611191 -0.9704138491 1.9564950297
H 0.0657025555 -0.956811019 -0.3063969792
H 0.4039021474 1.9322510984 0.2160062634
H 2.2523722332 -0.890052705 -2.093666987
