11
0
O -2.0213401208 -0.3718693342 -0.6872627476
C -0.7655330478 -0.225387828 -0.2333731827
C 0.0215105539 1.0468379497 -0.1860131386
C 1.1483995407 0.1568148037 0.4277038302
C 0.184094032 -1.0046844475 0.2885284882
H 0.2552634852 1.4888805597 -1.1559309567
H -0.3738182151 1.8169366969 0.4784255342
H 1.4216275301 0.4274966743 1.449734751
H 2.0535676426 0.1016262717 -0.1804963492
H 0.2580715319 -2.0569402605 0.5280518656
H -2.2866639326 -1.2913170858 -0.6012360943
