12
0
O -1.8675262864 0.6735583934 1.0822753927
C -1.1933007001 0.1740205673 0.0232123087
C 0.8361663058 -0.5937051593 -1.1745973851
C 0.1265821605 -0.0392503265 0.0230273241
C 0.929521853 0.269985616 1.213948275
O 2.1245598075 0.095949345 1.2664015116
H -2.7994744268 0.7445982201 0.875246651
H -1.7932672192 -0.0530983547 -0.8551907588
H 0.1434117156 -0.7773937062 -1.9968140631
H 1.6090890447 0.0964695781 -1.5168324958
H 1.3383263678 -1.530309387 -0.9264225041
H 0.3822523775 0.6788372137 2.0813877439
