14
0
C 1.5255455856 -0.4374739848 0.1363116346
C 0.2802426433 0.394889954 -0.1510027297
C -0.4472201529 -0.003734582 -1.4310612266
C -1.950662199 0.5759853675 1.3506910019
C -0.6438384839 0.366987689 1.0134618445
O -0.3698543595 0.2435997456 2.2351676467
H 1.9804623343 -0.1445619172 1.0822143419
H 1.2766235226 -1.4990146192 0.1954182002
H 2.259822226 -0.3033232845 -0.6584263307
H 0.5734383539 1.4497843362 -0.2302227998
H 0.2035638132 0.1310051498 -2.2957353834
H -0.7482418172 -1.0531127649 -1.3976620388
H -1.3416085891 0.6032211273 -1.5836746147
H -2.5724258772 -0.3118402168 1.466836454
