14
0
C -1.7778737756 -0.1910676072 -0.096156065
O -0.8717600581 0.8411152595 -0.3962596642
C -0.5244971847 1.591185765 0.7434828209
C 1.7691319092 -0.8254554786 -0.5195780656
C 2.9167104079 -1.5446683064 -0.6108082724
O 1.6644673018 -1.1189652389 0.6989853756
H -1.350304156 -0.9001764219 0.6238962933
H -2.712260545 0.2093254517 0.3171979096
H -2.000883813 -0.7145109825 -1.0254642752
H -0.0431081843 0.9610332484 1.5009160483
H -1.4080120894 2.0683563585 1.1857627017
H 1.127659768 -0.146588852 -1.0826823195
H 0.1741393824 2.3650852519 0.4278505865
H 2.853830037 -2.6147094476 -0.7994840738
