16
0
C -1.229413479 1.4785427746 0.681807792
C -0.0772086135 0.8275871237 0.5944030822
C 0.1852460867 -0.5744187164 0.2414924105
C -0.8791669397 -1.5576151418 -0.1008895128
C 1.5188861941 -0.7315669602 0.2892540269
C 2.2195351751 0.5227019725 0.6718943531
N 1.2079301749 1.3697814523 0.8269680053
H -2.163904599 0.9713215686 0.4821839071
H 0.1639973028 -0.0250845315 -3.2445047235
H -1.2748067615 2.5260098876 0.953112313
H -0.4452633383 -2.5294633469 -0.3322517003
H -1.4527851079 -1.2263908124 -0.9701475207
H -1.5816864995 -1.6855976806 0.7259848118
H 2.0477351179 -1.6515339566 0.0797023973
H 0.530314567 -0.0396931166 -2.5950272451
H 1.3400487198 2.3306234836 1.0936556031
