13
0
O -0.0042593433 0.4383246841 1.476057039
C 0.4976658383 1.0279158723 0.3370547163
C 1.5384294122 0.1055255984 -0.2690370255
O 0.5684146964 -0.948673077 -0.6972820432
C -0.7737970734 -0.3805515789 -0.4813024063
C -1.067532042 -0.4121015553 1.0043822679
C -0.4103045096 1.0756399451 -0.6842796839
H 2.223532411 -0.3476992217 0.4447506928
H 2.063823753 0.5114576565 -1.1305059715
H -1.4693650318 -0.8899316676 -1.1429377457
H -0.9274329678 -1.3931872021 1.4564309741
H -2.058187176 -0.0143711479 1.2455050656
H -0.0943269673 1.3963926941 -1.6678918795
