15
0
C -0.3725334136 -2.1197577003 0.1093155233
N -0.6807186856 0.2289929114 0.7944285839
C 0.2943825937 -0.8212896012 0.5527231877
C 1.2511985706 -0.2563033907 -0.4585846717
C 0.8550869201 0.9782834484 -0.7588819037
C -0.3522786148 1.2216481111 0.0519035091
N -1.078071501 2.379527765 -0.0332988341
H -0.9148558909 -1.9671667059 -0.8255660056
H 0.3666971178 -2.9091758732 -0.0416056429
H -1.0840287088 -2.4467203059 0.8673462767
H 0.8337691353 -1.0102398598 1.4908228513
H 2.1018810553 -0.7869821381 -0.8650430065
H 1.3015173182 1.6724460242 -1.4580000244
H -1.7662184446 2.5082761611 0.6886821027
H -0.5945124517 3.210632154 -0.3205649459
