17
0
C -1.8563546119 -0.6569371497 0.4069669931
C -0.9880398386 0.0079434007 -0.6256953957
O -1.0341809855 1.4399879956 -0.5575309543
C 0.3968459361 1.5444401718 -0.6139326961
C 2.4794972026 -0.3735862287 0.436503472
C 1.1034226514 -0.4746553868 0.8960988714
C 0.5604257407 0.0329585735 -0.4801357685
H -2.8971331156 -0.3777848197 0.2344611986
H -1.58376694 -0.3476671891 1.4165367021
H -1.7810175001 -1.7440311972 0.3332753323
H -1.2735305571 -0.3316004986 -1.6290471803
H 0.7396870471 1.9578586599 -1.566304253
H 0.8001056005 2.1395737071 0.2073535373
H 2.7396853398 -1.3550024702 -0.0050708716
H 0.8154170828 0.2538338077 1.6557648216
H 0.6818910645 -1.4605592572 1.1178538555
H 1.069365883 -0.4470571191 -1.3196656643
