12
0
O -1.4077585245 -0.0400261807 1.3354160535
C -0.8553971075 -0.500396504 0.1616185174
C -0.230958201 0.4420781695 -0.9355073251
C 0.8113130007 1.1331223226 -0.0652688073
N 1.3669355495 0.2091337218 0.6107639416
C 0.6226995953 -0.9666302367 0.0607683491
O 0.5408501372 -0.7077953082 -1.3445486456
H -1.5439027058 -1.2112857053 -0.2910454496
H -0.7766631372 0.9549144518 -1.7216714939
H 1.0431199585 2.1876448706 0.0280409428
H -0.7366992992 0.4469444936 1.8250194796
H 1.0189787339 -1.9366280951 0.3431834377
