15
0
C 2.3897568621 -0.8947681649 -1.1475771212
C -1.2254959507 0.3188097828 2.4650955416
C -0.4179514329 -0.2186607982 1.4684817311
C -1.023294699 0.4582554162 0.3901144885
N -1.061370625 0.0815826215 -0.9073371653
C -1.7766512918 1.5736491022 0.9401598013
N -1.6471417143 1.5736903823 2.2498234351
H 1.8944012471 -1.862607594 -1.0623536306
H 2.2076416302 -0.473083846 -2.1354447912
H 3.4605224277 -1.0348902628 -1.0106763682
H 0.025973944 -1.1998127402 1.4242230005
H -1.8715830113 0.2754711499 -1.4660528799
H -0.4580429936 -0.6534521178 -1.2284005603
H -2.3334060482 2.3201872686 0.3861164427
H 2.0159846555 -0.2142121998 -0.3834229243
