11
0
C -2.0610135628 -0.0715318169 0.3987358238
C -0.9508069081 0.8700675093 0.3420205322
C -0.0341526479 1.6388845709 0.2927567256
C 1.8659008216 -1.1327682299 -0.2750209272
O 0.9359540251 -1.8253747144 -0.3065470544
N 2.7636111345 -0.3244980811 -0.2868270502
H -1.7040876371 -1.0874798259 0.2255371402
H -2.80625873 0.1658462007 -0.3615262872
H -2.5462903868 -0.0377847629 1.3750437128
H 3.7162120514 -0.5232964368 -0.0419235499
H 0.7903698401 2.3095035871 0.2426769346
