16
0
C 2.063734324 -1.2980798133 1.4792919022
C 0.9549304535 -0.8072329484 0.939722608
N 0.750739664 0.5381834907 0.6666549188
C -0.3154177451 1.1709109518 0.074213664
O -0.256638846 2.3630482423 -0.1430548118
C -1.5169402937 0.3576978347 -0.2719661101
C -2.5310309995 0.9247504545 -0.9069928602
H 1.1215312813 -0.9596627445 -2.1434536343
H 2.1531751084 -2.358428182 1.6627079347
H 2.9015108452 -0.6661657892 1.7497233107
H 0.1377382759 -1.4637578432 0.6767889089
H 1.5083685424 1.1725477222 0.8711484218
H -1.5605709096 -0.6882081131 0.0010002875
H -2.4864653769 1.9735167892 -1.1759033491
H -3.4179090068 0.3615451366 -1.1684709614
H 0.508745683 -0.6618041882 -2.4459172297
