18
0
C -1.2880889356 1.5586263337 -0.2113822244
C -0.1951546701 1.1133577289 0.6650465459
C -1.4949172464 -1.8821141158 0.1606973131
C 1.0275050818 0.7331890188 -0.0289269766
C 1.8561163886 -0.3471362907 0.6552789028
O 0.9266105472 0.5189125602 -1.4308628896
H -1.0169900086 2.6085857337 -0.4146320486
H -1.3564952507 1.0669878687 -1.1865761037
H -2.2484638282 1.5902431782 0.3019306358
H -1.2294046713 -1.2849270604 1.0347886369
H -1.289262224 -2.9322069829 0.3642354384
H -2.55549349 -1.7528232319 -0.0505996325
H -0.9129068181 -1.5550653558 -0.7009583822
H 1.526817003 1.7157106005 0.1732014134
H 2.8529540645 -0.413248192 0.2117152786
H 1.365879888 -1.3154788333 0.5482358274
H 1.9582035278 -0.1240067596 1.715492473
H 1.7647486424 0.1869947994 -1.7571852075
