15
0
C -1.8752821124 -0.5551169 -0.3671142229
C -0.8850196414 -0.6557693427 0.7741597294
C 0.9947226372 1.6226308232 -0.8932897866
C 0.9262154536 0.6302498665 -0.0167096492
O -0.0839632974 0.5206325849 0.8932222926
C 2.0384185152 -0.356730279 0.1337855613
O 2.9296790924 -0.5039270925 -0.6574829553
H -2.5270201318 0.3089658485 -0.2325967272
H -2.4934879406 -1.4541330506 -0.4039006625
H -1.3626877658 -0.4575010967 -1.3256360818
H -0.244397481 -1.5377623048 0.6511160494
H -1.3968024808 -0.7491623145 1.7321086274
H 1.8656005927 1.7058889108 -1.5287863983
H 0.2070742671 2.3606494458 -0.964532402
H 1.998524293 -0.9457860991 1.0727086259
