18
0
C 2.4351693744 0.7808317355 0.5388019416
O 1.28954694 0.2561553869 -0.1003255083
C 1.2304862771 0.4493605889 -1.440141263
C -1.4571595404 -1.8627325956 0.78020128
N -2.478710532 -1.1282149288 0.7585424588
C -2.2769834747 0.3025354788 0.8396174133
C 0.1869893714 0.0877819371 -2.1690134167
H 2.347004211 0.5354826878 1.5951497553
H 2.4875737747 1.8682741765 0.4273539357
H 3.3504729207 0.3310683298 0.1415406287
H 2.1085001037 0.9182371799 -1.8800425088
H -1.5822176723 -2.9431633892 0.7214621842
H -0.4356052196 -1.4692838464 0.847144548
H -2.733974785 0.7735255745 -0.0332846687
H -1.2203729416 0.5939543814 0.8915231651
H -2.8024516026 0.6827046019 1.7180906008
H -0.6837335832 -0.3786995776 -1.7267355803
H 0.2005693785 0.2564602787 -3.2356639658
