13
0
O -1.8288265491 0.1028740272 -0.1486475069
C -1.0436611323 -1.0014687278 0.3250026084
C 0.1871931979 -0.4866454843 -0.4442713365
C -0.6793431268 0.7726537312 -0.6578398222
O -0.2618696557 1.8316214287 0.1254144493
C 1.453223373 -0.3718412807 0.2500956231
C 2.498095477 -0.3046749471 0.8295645174
H -0.8875346505 2.5529832365 0.0277680695
H -0.9267406561 -0.9853891107 1.4105810145
H -1.4503116473 -1.9597898138 -0.0002581274
H 0.3220096024 -1.0201740293 -1.385243849
H -0.849456231 1.0854958027 -1.6936802899
H 3.4259809985 -0.2359928324 1.3460736496
