14
0
C -1.7933290884 0.7448748107 0.0080547
C -0.9853716465 -0.5518329025 -0.0143132484
C 0.4796618346 -0.3710471217 0.2800040011
C 1.5080551925 -0.1403238609 -0.7092720538
N 2.7286524903 0.066012296 -0.4149453584
N 1.2443550067 -0.3561525616 2.5816502698
N 0.8740368859 -0.3609109034 1.5246509724
H -2.8427283523 0.5549945919 -0.2262045604
H -1.7481870597 1.2175158723 0.9911729191
H -1.4063185316 1.4592218792 -0.7210898387
H -1.4137669374 -1.2705447083 0.6888863014
H -1.061435647 -1.0189442718 -0.9997370016
H 1.1282717218 -0.1667661946 -1.7376746943
H 3.2881031313 0.1939040747 -1.2511834084
