19
0
C 2.3646646551 -1.6160110661 0.7521973311
C 1.7718665242 -0.3266496192 1.226630414
C 0.7791041637 0.3666506958 0.6753435802
O 0.4162373129 1.5575122756 1.2394134101
C 0.0087031795 -0.0050980809 -0.5610891883
C -1.4873493673 -0.146073464 -0.3296486835
O -2.0178021257 1.1428061846 -0.0203001114
H 3.4352460607 -1.50564698 0.5585153553
H 2.2595709515 -2.3973963778 1.5102289216
H 1.9066635665 -1.9888304836 -0.1639816962
H -2.4240248263 1.9845215587 -3.179478055
H 2.2085689367 0.1081472593 2.1209073229
H 0.3805954934 -0.9437438978 -0.9684649472
H -0.4613281442 1.7954013891 0.9138267461
H 0.1656775519 0.7628698457 -1.3264736937
H -2.3234037237 1.90355346 -2.4441678714
H -1.6759384817 -0.8431580812 0.4939289119
H -1.9661710875 -0.537847981 -1.2336760169
H -2.9059516398 1.0509323626 0.3270682707
