13
0
O 1.3410368726 -0.3609881839 1.8886475839
C 1.5489187866 -0.6854652368 0.7986741398
C -1.7947311826 -0.0999568107 -0.8025186691
C -1.8720119334 -0.2946068403 0.5033978215
C 0.7754393909 2.584526901 0.1038795795
O 1.8098087179 2.9995644953 0.2426287782
C 1.7922036708 -1.044005781 -0.4345883392
H -2.1341951875 -0.8478655778 -1.5106974261
H -1.3909393601 0.8187651105 -1.2126769058
H -2.275417658 -1.2103887934 0.9205512347
H -1.5355851043 0.4564127192 1.2090321942
H 2.8109290575 -1.2153592967 -0.7449648883
H 0.9599419295 -1.1730467054 -1.1086971033
