14
0
C 1.3534882256 0.9295043863 0.1528829518
C 0.4282242984 -0.1640999737 0.6594329508
O 0.1108844942 0.0222048932 2.02985313
C -0.8620857213 -0.3075310044 -0.1154191149
C -1.1003940178 0.251540472 -1.4411606947
O -1.6202698008 0.8855542227 -0.2840255448
H 0.8297260365 1.8867580243 0.097902238
H 1.7507893171 0.6926314397 -0.835572324
H 2.1914967807 1.033982343 0.8413787035
H 0.9469987744 -1.1261431386 0.6198936404
H -1.4637634679 -1.1598317314 0.1939264161
H -1.8413082487 -0.2107387947 -2.0868875005
H -0.31264047 0.7963604245 -1.952028713
H -0.4331252006 0.8119654371 2.0977878612
