16
0
C 2.4582985892 -0.3074489436 0.0033594041
C 0.98830886 -0.0813966563 0.0395505704
C 0.0020689803 -0.8828314525 -0.3959954938
C -1.2816973663 -0.2449443565 -0.1404241138
C -2.5094498875 -0.7355655906 -0.3004024112
C -0.9415489743 1.1387461665 0.3854791778
N 0.4978033991 1.0705432509 0.6453514913
H 2.8663039415 -0.3270183444 1.0162923112
H 2.691797761 -1.2501670003 -0.4879145316
H 2.9633005749 0.4966888809 -0.5391618894
H 0.1334484257 -1.8700533264 -0.8123104041
H -1.4981918787 1.3873167054 1.2904214998
H -3.3895398008 -0.1541268842 -0.0535142206
H -2.6666156701 -1.7357161071 -0.6843888393
H -1.1666462978 1.8960311493 -0.3734520386
H 1.0269083435 1.9145875091 0.4971924879
