16
0
C -1.8558505631 0.7224073759 -0.3077935336
C -0.5758408375 -1.4852349152 0.2645469803
O -0.834771876 -0.1719513921 -0.7501874144
C 0.3870804196 -0.3775061954 0.0722855877
C 1.5726105563 -0.4846545296 -0.8559442176
C 0.5945414253 0.6060574788 1.1957564983
H -2.6860758387 0.5831974191 -0.9975616789
H -1.4912364631 1.7489544324 -0.3681641466
H -2.1714969792 0.4694060887 0.7018536358
H -0.3501444794 -2.2412793502 -0.5030088091
H 1.3131993843 -1.069017876 -1.738037371
H 1.9371945997 0.4962723856 -1.1714501987
H 2.3857254373 -0.9952258927 -0.335127285
H 1.4355314716 0.2461589909 1.7918462186
H -0.2694321292 0.6556688934 1.8540461029
H 0.8515188723 1.6042080861 0.8315946311
