14
0
C 1.5064305855 -0.6275640098 -0.6197333904
C 0.4391543813 -0.1761946198 0.3416655823
C -0.7408623587 -1.0578309421 0.6714777938
C -0.9226056815 0.163687811 -0.1510891544
O -1.6358720736 1.2480057227 0.4647837943
C -1.2482934769 2.4720023985 0.3213540825
H 1.077556944 -1.2142821761 -1.4350338266
H 2.245495698 -1.2523478157 -0.1149877118
H 2.0252127944 0.2266676771 -1.0588887894
H -0.8286466146 -2.0197781353 0.1823905846
H -1.1258169657 -1.0190237576 1.6819954369
H -1.1600605918 0.0841640442 -1.2047171722
H 0.7854956535 0.438138105 1.1662099389
H -0.310664294 2.4458846979 -0.2989581684
