14
0
C -1.5432334129 0.7569845801 -0.1341915364
C -1.0313353861 -0.6274926172 -0.5244309882
C 0.4508247226 -0.6794150332 -0.767639996
C 1.159247263 -0.8735122243 -1.8285094895
C 1.4796594895 -0.4939671635 0.3604074512
O 1.5130971035 0.8236054971 0.8480505729
H -1.3302791423 1.4829144469 -0.9206158194
H -2.6238143106 0.7260844995 0.0153274791
H -1.0761248787 1.1107145027 0.7839649643
H -1.262708601 -1.3478552805 0.2660141197
H -1.5422059869 -0.9750523823 -1.4237543627
H 2.4710909169 -0.8322595706 0.0397948407
H 1.1711447251 -1.1345546948 1.1889981314
H 1.8288544979 1.39693144 0.145755633
