10
0
N 2.2964464298 -0.0894362512 0.0770518333
C 1.0548277407 -0.1467853145 0.043869107
C 0.104140567 -1.2694338165 0.0992093266
C -1.1925761399 -0.8764102254 0.0306252323
C -0.9798989925 0.5466623368 -0.0716539751
O -1.9135513058 1.429153624 -0.1709228685
O 0.2371409459 1.0307392167 -0.0693459783
H 2.6494856371 0.8623252986 0.0169453453
H 0.4890408153 -2.2778571004 0.1872255639
H -2.7438796977 0.924341232 -0.1588705867
