19
0
C 2.5530617899 0.0833926101 -0.4401864573
C 1.578398968 -0.1318251083 0.7515499743
O 2.2372277075 0.0951683304 1.9776434774
C 0.5355190929 0.8386782859 0.4541562613
C -0.45561372 0.3687993087 -0.5300333007
C -1.7052740385 0.021404584 0.3189735494
C -2.846437436 -0.4830610175 -0.555031813
H 2.1854642938 -0.3773717386 -1.3564048271
H 3.4955148793 -0.37821725 -0.149676089
H 2.7363098676 1.1456599438 -0.6153869535
H 1.2488553334 -1.1811390133 0.7389007821
H 1.9616452316 0.9729742855 2.2614531634
H -1.4456044444 -0.7391618154 1.060704663
H -0.1710651938 -0.5211380151 -1.1114167659
H -0.7390297559 1.1714070681 -1.2157369537
H -2.0145689833 0.9077526913 0.875444379
H -2.5620733594 -1.3863390963 -1.0986854393
H -3.1402425779 0.2706584471 -1.2883684098
H -3.7212686548 -0.7197245005 0.0527837595
