13
0
C 2.4449763572 0.3694555691 0.3548320307
C 1.0001876693 0.4427764411 -0.062116051
C -2.3561534437 -1.1135963103 -0.0736685801
N -1.9425812431 -0.6866770905 -1.1857969542
C 0.1411856308 1.2817013786 0.4544664117
O -0.622888826 2.0216640802 0.9195495927
H 3.1075373314 0.5940336579 -0.4836251905
H 2.6659124697 1.0808733331 1.1505822156
H 2.6971997095 -0.6279467235 0.7208239192
H 0.5877968346 -0.191567646 -0.8385211089
H -1.6323731179 -1.2908860504 0.7227490863
H -3.4049716417 -1.320131686 0.158593587
H -2.7102417304 -0.5555059534 -1.8420099589
