14
0
C -2.6589557546 -0.1419087269 -0.6910152751
C -1.3502765993 -0.7696192694 -0.5559478597
C -0.2802064591 -1.3000464439 -0.4595631184
C 3.786908903 -1.5044698486 0.2527650762
N 3.2978607392 -0.4528983919 0.1861624921
O 1.5808965329 1.7274220012 0.2366092278
C 0.6717034268 1.3629573502 0.9355977332
H -3.1347501304 -0.020871487 0.2831642682
H -2.5724642865 0.8397055998 -1.1591762039
H -3.3111697445 -0.7567815121 -1.3122794635
H 0.6704975267 -1.7783122062 -0.3897558163
H 2.8228328027 0.4498103446 0.1406561822
H 0.7458589984 0.4661837171 1.5714743568
H -0.2773279551 1.9215898731 0.9728844002
