15
0
O 1.1925830949 0.3148840978 -1.7029947651
C 1.8752324739 -0.0510754006 -0.7594654054
N 1.1656241276 -1.1556019552 0.0971971463
C 0.0123966344 -1.5749610314 -0.1837407251
C -2.4923991391 0.7675581064 0.5272665418
C -1.3057919833 1.3545157159 0.5409071178
N 3.0022659841 0.1536046608 -0.1832777109
H 1.6935287873 -1.469218185 0.9037393439
H -0.4405815363 -1.1491560795 -1.0750468603
H -0.4875615527 -2.3158102299 0.4284585764
H -3.0856348355 0.6562126857 1.4281310297
H -2.929085891 0.3921219203 -0.392254729
H -0.8797225724 1.7416575679 1.4601249034
H -0.7109929703 1.4711595513 -0.3594054799
H 3.5108393785 0.8714615756 -0.6892509838
