12
0
C -2.0100101193 -0.2026662845 -0.0706949555
N -0.7469073902 -0.5652602614 -0.6941576067
C 0.3361565589 -0.7253747016 0.1771571128
C 1.5039593945 -0.153251267 0.0670285844
N 2.6645676367 0.204456891 -0.1748887267
C 3.1835551469 1.3338171283 0.3394260856
N 3.7208437434 2.2771057475 0.7210256822
H -2.2723177199 -0.9585981663 0.6716193255
H -2.7912239711 -0.1959376762 -0.8300936594
H -1.9877697413 0.7742251368 0.427205013
H -0.5240649192 0.0174281369 -1.486155573
H 0.1914813806 -1.3935106838 1.0202337176
