14
0
O 1.4221574451 0.7944133224 -2.0616845422
C 1.2409033244 -0.7972858027 1.0400714218
C 0.7769236392 -1.6701159519 0.1599934918
C -0.9926561395 1.3112626089 -0.2826585966
C -2.1614754852 0.5752227051 0.2602318152
O -1.429154738 1.6907485698 0.8549967959
H 2.0133623465 1.5396395038 -2.1695468523
H 1.7505988799 0.1009322695 0.7103925837
H 1.1385163672 -0.9489139989 2.1093437197
H 0.8978833331 -1.4996037842 -0.9040281807
H 0.2767612859 -2.5809531221 0.472240705
H 0.6552592562 1.1361089465 -1.5772731936
H -2.0023983061 -0.3709666627 0.7597140465
H -3.1592262089 0.8326193961 -0.070270214
