11
0
O -2.2687403106 0.3903420084 -0.3816156084
C -0.9524174622 0.2956991263 -0.3822927646
N -0.1501509805 1.2913800391 -0.5988753839
C 1.1333961018 0.7523743159 -0.5561913801
O 2.1699276866 1.338017224 -0.6959679363
C 1.0205308233 -0.7656566572 -0.2919877773
N -0.4089471322 -0.907792801 -0.1313106227
H -2.4867699401 1.3105514235 -0.5724649187
H 1.5775209969 -1.0413765885 0.6035464702
H 1.4076417683 -1.323696251 -1.1465203839
H -0.9303415514 -1.7637858394 -0.1691016945
