17
0
C 1.7599762125 -1.1621111338 -0.0815485526
C 0.3814168368 -0.6887926943 -0.3660019772
C -0.1674295751 0.1606076735 -1.2390642459
C -1.5828907141 -0.0749060595 -0.7648682757
C -0.9450382972 -1.0548256298 0.2648390012
O -0.8247289484 1.95774733 1.8303351679
C 0.1332805228 2.1272960969 1.1315231613
H 2.4907980467 -0.6676389857 -0.7229883484
H 1.8370077816 -2.2408695446 -0.2415581134
H 2.0292981541 -0.9769160467 0.9619306874
H 0.2476088718 0.7784153314 -2.0282788153
H -2.2497182463 -0.5465396124 -1.4894826569
H -2.091587883 0.7820253861 -0.3185326417
H -1.2440034508 -2.1001506909 0.1578323358
H -1.0642929205 -0.7532380664 1.3083781097
H 0.0884074406 2.7396463102 0.2118367361
H 1.1199321685 1.6896203358 1.3720404278
