9
0
O 0.1696277211 1.5298667562 -0.3090116666
C 0.3328177081 0.3052074878 0.2850487835
C -0.9738738038 -0.5023126321 0.2747131918
O -1.9558732301 -0.0598939297 -0.2428798267
C 2.0875151185 -1.2040198978 -0.8965245965
N 1.3136244053 -0.5079582945 -0.3716703773
H -0.6633525842 1.5053956451 -0.8011450948
H 0.667829722 0.4361622031 1.3197949086
H -0.9381500569 -1.4992013382 0.7453526781
