14
0
C -2.2378733557 -0.1947335862 0.5583413007
C -0.9547462962 -0.0768092031 0.2368771727
N -0.232765501 1.1257424858 0.1788843928
O -0.1698323638 -1.1479879662 -0.0278333989
C 1.2234221534 -0.8915311904 0.0897515942
C 1.6356452627 0.269624369 -0.819983731
O 0.5303344815 1.1317130896 -1.0219987406
H -2.8613953365 0.6817133732 0.656382555
H 1.9113871624 -0.0747395184 -1.8172188255
H -2.6682369043 -1.1700423478 0.7282092901
H -0.8359772516 1.9339752215 0.1245430192
H 1.4629154365 -0.6666899122 1.1320220376
H 1.7245821393 -1.8151515972 -0.194216977
H 2.4809383734 0.8093007819 -0.3763516897
