15
0
C 2.2252780229 -0.3045293218 1.0856964343
O 1.3084554655 0.5822970821 0.4591629252
C 0.2467871692 -0.0306175272 -0.12187892
O 0.6341186814 -0.8858331802 -1.1307931006
C -1.0359117192 0.653357548 -0.0974977339
C -2.0693629151 0.5154263358 -1.1703984966
O -0.7615750361 -0.5275051764 0.7114554006
H 1.7110222161 -0.9361125921 1.8153306092
H 2.9507985547 0.3214228297 1.5999424312
H 2.7340662732 -0.9288358904 0.3492856254
H -1.0853691302 1.5586208028 0.5023971104
H -2.0762902905 1.4139416731 -1.789937861
H -3.0607350282 0.3985011451 -0.7295668543
H -1.8683850213 -0.3401729492 -1.814509296
H 0.0476567577 -1.6455697792 -1.1087732742
