15
0
O 1.3324281728 -2.4018527542 1.9282945984
C 1.4637904854 -1.5172214745 1.1917679426
C -1.8467182695 -0.694256813 -1.0106956253
C -1.3753188101 0.1948363316 -0.1512179856
C -0.2025554927 1.0921208836 -0.3947006351
C 0.958542026 0.8303116697 0.576924157
C 1.62116195 -0.5094712554 0.372914445
H -1.3981002452 -0.824815174 -1.9902340503
H -2.6946217854 -1.3237433875 -0.7698868115
H -1.8510418915 0.2880114845 0.823841197
H 0.5958392823 0.9094730581 1.6050130594
H 0.1468933475 0.9749063902 -1.4243122982
H -0.5146365445 2.1357055448 -0.2794809384
H 1.7088689549 1.6156496972 0.4568508197
H 2.21819182 -0.7056212012 -0.5087818746
