10
0
O -2.5871794433 0.5328054558 0.6571908697
C -2.0899094372 -0.356611493 0.0513249214
O -0.7456784344 -0.523811562 -0.1567168039
C 0.0913198539 0.3818980393 0.3589725821
C 1.4369144798 0.3042607739 0.2031685817
C 2.0105749568 -0.7678164191 -0.5329417494
H -2.6131453127 -1.1842183665 -0.4383120317
H 1.9853289801 1.117624389 0.6813986096
H -0.3959227031 1.1833119888 0.9084003003
H 3.10472706 -0.6169158062 -0.5355262798
