11
0
O -2.1229749595 1.1674065627 0.6906837829
C -1.1671663271 0.6973156178 0.2454719863
C -0.0833720405 0.1714246559 -0.2701076484
C 1.2837708194 0.7682348956 -0.0526930431
C 2.1586386675 -0.1056049101 0.7364042404
N 2.8419580243 -0.7974722088 1.3440198964
H -3.0195771188 -1.6967946574 -0.9010509606
H -0.2079119967 -0.7372062076 -0.8423045377
H -2.6064025533 -2.1377802143 -0.465096291
H 1.2141240098 1.7284639475 0.4603840493
H 1.776268475 0.9584645185 -1.0089974746
