15
0
C -1.2881087284 -1.7138196914 -0.5279364258
C -0.7987995246 -0.3835599524 -0.0274823781
C -1.8392633504 0.5917082936 0.4471839994
C 0.4803345597 -0.0901939934 -0.0025849728
C 1.7166979981 0.1847950005 0.020684982
C 2.9988634291 0.466076868 0.0450140461
O 3.547403157 1.6314414085 0.4759420753
H -1.9649601981 -1.5773255239 -1.3765674983
H -0.465217652 -2.3541942648 -0.8404812389
H -1.8527137318 -2.2309727992 0.2535967918
H 2.8417409341 2.2203256629 0.7577075694
H -2.4135110046 0.1628095108 1.2738322707
H -1.3936602752 1.5255408001 0.7857630339
H -2.549286424 0.815448133 -0.3544787191
H 3.754759811 -0.234698452 -0.2870695355
