11
0
O 2.2708660819 -0.9436560554 -0.0502004229
C 1.1274997708 -0.6304371763 0.1205383991
C 0.6740805888 0.8048970051 0.2479219836
C -0.6717023687 0.9886029067 -0.3750155886
N -1.4965717836 0.0376780728 -0.5516154355
C -1.0740131288 -1.2223768801 -0.0757228188
N 0.1036005249 -1.5937921391 0.2344671221
H 1.4207900238 1.4772332064 -0.1725522416
H -0.9688188136 1.9857986041 -0.6974966416
H 0.5936012868 1.0481862381 1.3163002558
H -1.8819311822 -1.9448167822 0.0133103883
