13
0
C 1.7959528176 -0.2310243001 -0.3055417833
O 0.7415624914 0.5705076921 0.1971149816
C -0.1179712894 -0.1227208004 1.0016982205
C -1.5005235347 0.3060243088 1.0646643763
O -1.1210947089 -0.8846379805 0.3697948864
C -0.8474338314 0.150683076 -2.6623217135
O -1.6718174951 0.8925417373 -2.4796508399
H 2.3719933702 -0.6774781704 0.512907253
H 2.4437995612 0.4235888034 -0.8845623449
H 1.4108758116 -1.0229167526 -0.9536891823
H 0.3592225591 -0.6270159514 1.8432796284
H -1.8064662551 1.1290540615 0.4263301174
H -2.0853134964 0.1525102762 1.9662694004
