13
0
O 1.8605346769 2.7429697725 1.0451536234
C 1.4339873506 1.8018660915 1.4861081768
N 1.4907903251 -0.29410654 -0.8824107139
C 0.4456242439 -0.9775574377 -0.1469228015
C -0.7799447499 -0.1595379331 -0.098021311
C -2.1336896356 0.0643149841 0.3511784693
N -1.2511938242 0.8930197311 -0.5708544136
H 2.273061207 -0.9057020792 -1.0631851429
H 0.7694090888 -1.1517156537 0.8840730778
H 0.1537578075 -1.9597881484 -0.549963373
H 1.144927073 0.0557205777 -1.7656075042
H -2.9668507291 -0.4574644468 -0.1108964691
H -2.3234198339 0.474135082 1.3388883822
