17
0
C 1.6493140715 0.3018458172 -0.7181890459
C 0.3855210989 0.3211754905 0.1056546849
C -0.0745071721 -1.0516331897 0.6126360173
C -1.0747335623 -1.0921667388 -0.5643301741
C -0.9108047242 0.4375764147 -0.705952327
C -0.2143174078 1.6954555047 2.0369903527
O 0.6267204839 1.3627787323 1.1282840698
H 2.5066006208 0.0554296778 -0.090155599
H 1.5745519884 -0.4427863213 -1.5122302014
H 1.8191841186 1.2787365751 -1.1731477209
H 0.6877705492 -1.8272344318 0.6830849363
H -0.5950666345 -0.9701427119 1.5678044715
H -2.0757280506 -1.4594244831 -0.3450802111
H -0.6824800161 -1.6329748581 -1.4251191362
H -0.825953006 0.8677201325 -1.7036476563
H -1.1386120237 1.0637861066 1.9103250437
H -1.6834843339 0.9686062837 -0.1482875046
