11
0
C -1.3108749219 0.4093995641 -0.1102596719
C -0.4671390812 -0.6124972642 -0.7617146093
O 0.8869087635 -0.1337367625 -1.1168838499
C 1.4632726303 0.1444722036 0.0094658316
N 0.7423654529 -0.0919626221 1.0491050155
C -0.5879708835 -0.6405214817 0.7485064568
H -0.9488069609 1.4342309131 -0.1703288888
H -2.3875721139 0.3147691925 -0.1677166366
H -0.7671119822 -1.3702917942 -1.4724743025
H 2.4819517915 0.5107057166 0.002815446
H 1.0922283055 0.0033443349 1.9877602093
