17
0
C 2.8310057263 -0.584736805 -0.8932411899
C 1.4700189767 -0.0416744191 -0.8190358059
C 0.6535440967 -0.7145493858 0.1934577427
C -0.8627916382 -0.5689402715 0.0651787131
C -1.2999027708 0.8658774298 0.1375555032
C -2.5548437765 1.2588389597 0.7666607689
O -1.3203704791 1.4376016193 1.4422046258
H 3.1864798283 -1.1895591813 -0.0458788534
H 2.7155627348 -1.265311509 -1.7561237524
H 3.5774303163 0.1450273902 -1.2077345794
H 0.9540337623 -1.7520314742 0.4125494317
H 0.9905451236 -0.1366994977 1.0798306666
H -1.3569876214 -1.1311072636 0.861890155
H -1.1897329998 -0.9957247277 -0.8872741978
H -0.8734258813 1.5188105858 -0.6194809633
H -3.2052288726 0.4938733119 1.1837212725
H -3.0513065253 2.1742562386 0.4576494628
