16
0
C -2.5266173809 0.9372030538 1.1658121946
C -1.2093301293 0.7321435832 0.4849082828
N -0.6830663667 1.4722824895 -0.3957958543
C 1.3260494724 -2.2806629348 -0.7735391793
O 0.7348499977 -2.0496306229 0.244292859
O 2.145806801 -1.4578341468 -1.4064443257
C 2.3255587463 -0.1611788706 -0.8161575988
H -3.0267012358 1.8405672968 0.8129507486
H -3.1769852153 0.077291173 0.9886427416
H -2.3829258525 1.0085537619 2.2467537921
H -0.6470560722 -0.1580586683 0.7782913011
H 1.2661439596 -3.2314952144 -1.3207304309
H -1.28123717 2.2714687502 -0.608152651
H 3.0887583584 0.326534054 -1.4165319251
H 1.3941050292 0.4070934997 -0.8439478941
H 2.6629140583 -0.2641352043 0.2153139395
