9
0
C 1.9880929346 -0.6013042859 0.8396217661
C 1.085765673 -0.1208695204 0.2197218683
C -0.0066947346 0.4543913256 -0.5465765333
C -2.2421221572 0.1558179532 0.2957152317
O -1.1237021118 0.7920206155 0.324901801
H 2.7904410962 -1.0288718018 1.3940344143
H 0.3029612177 1.3861529144 -1.02012263
H -0.3647367669 -0.2449551315 -1.3072960826
H -2.1497531508 -0.6462680693 -0.4880348357
