12
0
N -1.9953068174 -1.6018973455 -0.8902362339
C -1.6187271658 -0.5973924323 -0.484721508
C -1.1221576234 0.6713174694 0.0411387727
C -0.0199352829 0.4791384212 1.0805480272
C 1.5428107662 -0.4586838833 -0.4097597509
N 1.1284944998 0.0061424306 0.8944016229
H -0.7595769242 1.2731272154 -0.7961032874
H -1.9590164568 1.207864719 0.4885825971
H -0.2751907094 0.7918561207 2.0928852097
H 2.605292824 -0.2514414857 -0.5333640405
H 0.997832292 -0.0221480709 -1.2538810928
H 1.4120125979 -1.5427881587 -0.450930316
