16
0
C 1.5991691172 0.3180360897 0.0590930668
C 0.9340654623 -0.2038031349 1.2635430638
C -0.5224889211 -0.1861696747 1.1306731561
C -0.6398379075 -1.2338339977 -0.0521439796
C -0.5217409907 -0.0145937351 -1.0002810351
C -1.1049495997 0.8444812554 0.1306813644
N 0.8560467096 0.3885431395 -1.20610073
H 2.5896185479 -0.1152470378 -0.0912557767
H 1.8127468336 1.3345064992 0.4619127269
H 1.2983436618 -0.2089488748 -1.8904608615
H -1.0692905178 -0.3895885429 2.0492350601
H 0.108253666 -2.0263583788 -0.1240947558
H -1.6355239655 -1.6748585535 -0.0381670672
H -1.0453919969 -0.0534359905 -1.9545933008
H -0.7550141368 1.8747625699 0.1998548057
H -2.1948589622 0.8198383669 0.1424232629
