14
0
C 1.3757754426 -0.014335086 -0.5285911826
C 0.5543690479 0.3494665416 0.6801626549
C -0.8101548796 0.9876749151 0.4545196412
C -1.5624502947 0.2544928145 -0.6471404263
O -0.7446686938 -1.2261785877 -0.5547735911
C 0.5119967393 -1.0282266874 0.1245271515
H 1.0597786599 0.3631044479 -1.4928630118
H 2.4433567236 -0.1342858025 -0.4047203437
H 1.0680132665 0.5286490931 1.6166982119
H -0.7264946634 2.0422823187 0.1703861799
H -1.3486214456 0.9563071396 1.4077975082
H -1.1381701395 0.5531095369 -1.6136320228
H -1.3510950058 -1.7160389643 0.0087295152
H 0.8934562425 -1.9236766796 0.5954527157
