16
0
C 2.2715335345 0.8777741293 -0.3730212041
C 1.2075272427 -0.168277967 -0.2917705076
C 0.6131010663 -0.6085955045 0.9638889113
C -1.3413312101 -0.5184423261 -0.7420298285
C -2.5254016152 -0.2442629678 0.1489422398
O -0.1013569849 0.3062754787 0.107958348
H 2.1602232532 1.4679405746 -1.2831657953
H 2.2372864869 1.5465634708 0.4872152554
H 3.2503126863 0.3953135482 -0.3996622422
H 1.1047947317 -0.8634982326 -1.1193566967
H 0.1423071977 -1.5842505945 0.9945194637
H 0.9254576764 -0.1581713033 1.8986168417
H -1.3789071838 0.2140996099 -1.5654363591
H -3.389237461 -0.6272450064 -0.4057823296
H -2.4896731189 -0.8118706937 1.0847187982
H -2.7327283018 0.8081047844 0.3880271048
