15
0
C 2.0052966077 -0.7122515123 -0.1854823227
C 0.9200211032 0.3189460508 -0.0217699928
C -0.2999980017 -0.1527369178 0.7195309305
C -1.6574821475 0.1550116604 0.195057568
N -2.4561235146 -0.1237814168 -0.8615876699
C -1.3180941509 0.8300143612 1.2378183663
N 0.9724179922 1.5092676332 -0.4528036274
H 2.3578200057 -1.0475031385 0.7934009876
H 1.6153079065 -1.594685126 -0.6995148553
H 2.8528815329 -0.3203615979 -0.7477877282
H -0.1485861574 -1.0997872976 1.2455338928
H -3.391051023 0.2439540125 -0.8408135038
H -2.3626410902 -1.0324446577 -1.2777481572
H -1.4531270048 1.6410698497 1.9261776339
H 1.8492889418 1.6800170967 -0.9403885217
