11
0
O 1.6526820131 -0.176430003 -0.06293925
C 0.7185729884 -0.873920201 -0.3435677954
C -0.7092193958 -0.5319072167 0.0480247716
O 0.4249706515 2.2343843901 0.9350419525
C -1.6831358539 -1.1269967691 -0.8569499157
N -2.4207883985 -1.6094689549 -1.5900886503
H 1.138719548 1.6303092791 0.6950442829
H 0.8606911893 -1.8250894416 -0.8880511507
H -0.8714627883 -0.9277115997 1.0563893736
H -0.8250678829 0.5532992794 0.1098532168
H 0.7478429289 3.1182632372 0.7584161646
