15
0
C -0.0738941697 1.5325640277 -0.1594649333
C -0.1666268286 0.1716472991 -0.8556839797
C 1.1344057818 -0.6111664924 -0.799964733
C -1.3255111034 -0.596834657 -0.2700675897
O -1.2548999695 -1.6858087571 0.2298246394
H 0.2065964852 1.4097954237 0.8892256702
H -1.023596779 2.070895021 -0.1952898067
H 0.6814696707 2.1552318843 -0.6401050987
H 0.4403714098 -0.9836979366 3.159187981
H 1.9385259025 -0.0516114544 -1.2808819872
H 1.4237304822 -0.8047583185 0.2343877371
H 1.0385829771 -1.5761258963 -1.2978303711
H -0.4460554142 0.3534287836 -1.902848999
H -2.3026191679 -0.0677455207 -0.3187908832
H 0.1260217232 -1.2965904063 2.559563354
