10
0
N -1.5291004904 -0.2742868855 -0.4638721555
C -0.8422853511 -0.3828006244 0.575099581
O -1.3279868362 -0.8327358036 1.7357557499
O 0.4782573009 -0.1029054748 0.8143804442
C 1.3194503369 0.3722838857 -0.1270319103
N 1.0125631818 0.6191879526 -1.3182573396
H -2.256307992 -1.0304942941 1.570762586
H -0.9851337257 0.0841179195 -1.2403984743
H 2.3002246595 0.4990519551 0.331616969
H 1.8165539162 0.9656153695 -1.8281744505
