16
0
C -1.2682433439 1.2225065507 -0.0619766276
C -0.3539297851 0.2023524816 0.601628835
C -0.6019398216 -1.2119492967 0.0827892252
O -0.0076129758 -2.2135290144 0.8683513047
N 1.0194321703 0.732053495 0.4820941259
C 1.7107893561 0.4760947439 -0.7253160558
O 2.0240135442 -0.3348833388 0.3660040314
H -1.0267509504 2.2313664893 0.2736223106
H -2.3094991061 1.0185828443 0.1886620089
H -1.1701938235 1.1928167883 -1.1505577818
H -0.5505592384 0.1835937973 1.6767594429
H -1.6792324559 -1.3881816495 0.1197618491
H -0.309159336 -1.3035094562 -0.9727133343
H 0.9389565941 -2.0433167306 0.864777128
H 2.4629633256 1.2087352209 -1.0054191347
H 1.2050968465 -0.017019925 -1.5528703272
