9
0
O 2.4322544604 0.856697286 0.1894773574
C 0.314255799 -0.0278648816 -0.4481254819
C 1.2149401114 0.9175266074 -0.422490609
N -2.4769475657 -0.5771254673 0.1979558347
N -1.4303666089 -1.1695793731 0.4260328298
N -0.469556364 -0.9672760868 -0.5673351959
H 2.5694226407 -0.0173528633 0.5626300205
H 1.0188096156 1.8670141076 -0.9004546931
H -3.1135330886 -0.8371703289 0.9577029377
