11
0
O 1.754336847 0.7026381912 -0.8818911072
C 1.5360834996 0.4533732902 0.2663305454
C 0.1730595244 0.4909407393 0.9167541303
N -0.7917793345 -1.3973406483 -0.6757832419
C -1.2528635424 -0.2324764331 -0.7774313379
O -0.865191992 0.7800797272 0.0111493024
H 2.3532911411 0.1865621734 0.9696274668
H 0.007765919 -0.4620614079 1.4280193076
H 0.1726339569 1.2919077275 1.6606903467
H -1.2165264101 -2.0167353362 -1.3546589201
H -2.0105236092 0.1196989765 -1.477536492
