17
0
C 2.416178767 1.0395688366 -0.4970038507
O 1.2220554303 1.1495327189 0.2399569534
C 0.2142186265 0.3233716162 -0.2429448876
C 0.2065813913 -1.1591222076 0.1867598498
O -1.1012283857 -0.9778593252 0.7781879628
C -1.0753769132 0.3771418235 0.5331982605
C -1.932802863 1.2988546333 0.9212390607
H 2.8420030878 0.0305192839 -0.4315975827
H 2.2530655052 1.282948706 -1.5544876667
H 3.1246055074 1.7483883714 -0.0725019077
H 0.0776529701 0.458830865 -1.3235657017
H 0.952752686 -1.3993348527 0.9465656962
H 0.1872266637 -1.9159720354 -0.5981713416
H -2.5887392766 -3.1477028123 -1.2431950677
H -1.7641357663 2.3299304186 0.6470785307
H -2.4313809932 -2.6432808457 -0.7161690812
H -2.7931784372 1.0437398054 1.5247437735
