14
0
C -1.7196410185 0.2396246544 0.4544700235
C -0.4520588131 -0.3744230107 -0.0209384071
C -0.115867114 -1.6456476103 -0.1049370806
O 1.2086308964 -1.8007397607 -0.6044345628
C 1.7852696549 -0.6569347724 -0.8574672351
C 0.7311531321 0.3995285346 -0.5470686778
N 1.164357332 1.4902737836 0.3096697399
H -2.409241166 -0.5072118488 0.8471401462
H -2.2163170839 0.7725901701 -0.3597031575
H -1.509790944 0.975206064 1.2329444429
H -0.6244762418 -2.5686003061 0.1243188725
H 0.4689493337 0.8178424004 -1.531227293
H 1.9016761767 2.010477448 -0.1480763264
H 1.5623088556 1.1161042538 1.1628295153
