14
0
C -1.6765625778 -0.7464212652 -0.6921476686
C -0.7401285056 0.9337413621 1.3453900679
C 0.0639708653 0.1895485343 0.5867008928
O -0.3011445575 -0.66253011 -0.3888717654
O 1.3957543134 0.2007667075 0.7667903645
C 2.216014339 -0.0114869845 -0.3723726549
H -2.0703420439 0.2300225335 -0.9877660955
H -1.7650841272 -1.4447359109 -1.5212010222
H -2.2426544978 -1.1219453024 0.1645837227
H -0.2978693301 1.5945909338 2.0738018647
H -1.8136891561 0.8700688625 1.2788433511
H 3.2359922243 0.1593378141 -0.0350167907
H 2.1210204026 -1.0284408019 -0.7539382783
H 1.9727086517 0.6980836271 -1.1675529881
