14
0
C -1.8075836041 0.0472491229 0.4076005108
C -0.439086654 -0.3803214255 -0.0664766925
C 0.3145932806 0.6220105941 -0.9504402919
C 1.7557288061 0.5063154284 -0.6569421282
C 1.7439200413 -0.3206040957 0.5503921882
O 0.4316206192 -0.5341252244 1.0449816571
H -2.2349060627 -0.699761687 1.0770442731
H -1.7434384811 0.9949137006 0.9459802192
H -2.4823950453 0.1724517248 -0.4413723391
H 0.1586155888 1.6482640719 -0.5588604447
H 0.0476058942 0.6609737131 -2.0061999843
H -0.5138862667 -1.3407031973 -0.6012719086
H 2.4090894232 -0.0066669145 1.3555228692
H 2.1800514603 -1.2574748116 0.1318060717
