15
0
C -1.6076947767 0.0861040855 0.8906913512
N -0.4959527443 0.8452464837 0.253095133
C 0.397233428 0.1081466722 -0.6931689739
C 1.4060162301 -0.67510065 0.0724674555
O 2.2262964022 0.2018042031 0.8533298808
C -0.3172377903 -0.4549657502 -1.7567180793
N -0.932587721 -0.8675183541 -2.6502647501
H -1.1818205409 -0.7543703684 1.4324470157
H -2.1619658063 0.7307691137 1.5727035645
H -2.257151188 -0.2815412768 0.0994097823
H 0.1457779686 1.1967845613 0.9672315171
H -0.8717892767 1.6588141854 -0.2255083057
H 1.9950501708 -1.2727801204 -0.6286728469
H 1.00113219 -1.3724500772 0.8222539659
H 2.6200104544 0.8196052922 0.2291172899
