13
0
O 1.2509903602 2.0297621327 -0.8727095502
C 1.5602939178 1.0206751346 -0.3059008791
C 0.7805787972 -0.2708587158 -0.419295306
O 0.6791721028 -0.9350109562 0.8354335038
C -0.7682458946 -0.9871829463 0.733921833
C -1.63761207 0.0297448673 1.1487380047
C -0.7332696186 -0.1252078071 -0.6225570152
H 2.4508194509 0.9632087714 0.3502195844
H 1.2616681399 -0.9056832239 -1.1749047135
H -1.1170895625 -2.0084081029 0.603681768
H -1.0799183843 0.9120093988 -0.5870689422
H -1.0554940727 0.8707378174 1.557557683
H -1.2108591662 -0.6333413701 -1.4510509708
