11
0
O 1.7105543455 0.3333768984 -0.0489576708
C 0.726895417 0.8726824693 0.0186075964
N -0.0694077097 -2.3449825339 0.8679275283
C -0.4872434268 -3.4060340396 1.4046292811
C -0.3108509361 3.6980219549 -1.5144667952
O 0.8283001186 3.4376120842 -1.7749224475
H 0.8510109214 -2.4807521214 0.4514402235
H 0.0638113819 -4.3515564233 1.4209951873
H -1.4626631388 -3.402611094 1.8920669509
H -0.9205083901 3.0498131909 -0.8583409096
H -0.8057975828 4.6010936145 -1.9197539444
