20
0
C 3.0001811001 0.3687512475 0.6207795488
C 1.9924571703 0.6333202118 -0.1965497739
C 0.6186680983 1.0478587685 0.2306244503
C -0.4587887758 0.0562805405 -0.2088840682
C -1.867382639 0.4929828767 0.1745217633
C -2.9367745204 -0.4963704776 -0.2685692909
H 3.9689125419 0.059655479 0.2470695446
H 2.8917021183 0.4530200391 1.6975023214
H 1.9931414087 -2.427239111 -0.4008831551
H 2.146089204 0.5312008316 -1.2697266732
H 1.8764736878 -3.1453125001 -0.5661930085
H 0.3900846633 2.0307469831 -0.1982543257
H 0.5924280096 1.166561073 1.318173478
H -0.2455502174 -0.9234644689 0.2317907983
H -0.4036858923 -0.0820095763 -1.295008635
H -1.9197258589 0.6286352199 1.2600792361
H -2.0712265978 1.4759220713 -0.2636584621
H -2.9279182252 -0.6257204068 -1.3537164765
H -3.9353783255 -0.1615048655 0.0178786745
H -2.7749199497 -1.479077936 0.1813300536
