12
0
O 0.6139269183 0.6489655571 1.0517658137
C 1.6434714643 0.2747664163 0.1204446498
C 0.9300977921 -0.9074327883 -0.4562444283
C 1.1279770242 -0.6931256255 1.0116602157
C -2.4284722392 0.8867081948 -0.4031719606
O -2.3363108525 0.0621290265 -1.2702279102
H 2.5833789461 0.7884120584 0.0225878455
H 1.5607379574 -1.6645739907 -0.9143424311
H -0.0596087666 -0.7769902155 -0.886715891
H 1.5159152407 -1.2160546392 1.8677125694
H -3.349307853 1.4899793753 -0.2843866954
H -1.6036996316 1.0766496307 0.3064822227
