12
0
O 1.7546184113 -0.6755574546 -0.5633003046
C 1.0873569838 0.3386517637 0.1545981698
C -2.0593875519 0.7722144286 0.3564088444
C -1.3621704105 -0.2744579174 -0.5122474269
C -0.2573123034 -0.2266857435 0.5392387905
O -1.0642052384 0.7666315881 1.2339164027
H 2.6087044178 -0.3495943817 -0.8486109007
H 1.6308786213 0.623047317 1.0641247045
H 0.9412068737 1.2407783607 -0.4532478723
H -1.9202175376 -1.2059448381 -0.6052892753
H -1.0948945543 0.0789401806 -1.5090185092
H -0.1371987117 -1.1188773039 1.156002377
