18
0
C -1.5915488445 -1.6708922273 -0.1008706266
C -0.4787629195 -1.2297079841 -0.6674990026
C -0.0434080588 0.2022815849 -0.8254573877
C -1.0501192779 1.215536434 -0.2952104091
C 1.3625471994 0.4036910935 -0.2302673169
C 1.4417710499 0.2456124507 1.2830341754
H -2.3313111362 -1.0000944396 0.3205010568
H 1.0508912288 -0.7231449094 1.6017960893
H -1.805088754 -2.7311251455 -0.0396636046
H 0.2214898608 -1.961603683 -1.0675834421
H 0.0596534463 0.3716387874 -1.9053011024
H -0.6733741267 2.23191332 -0.4278401993
H -1.2489608151 1.0706482155 0.7687064698
H -2.0022344908 1.1409042302 -0.8235761783
H 2.0439359479 -0.3097806847 -0.7047518984
H 0.8709894975 1.0190454235 1.8003739899
H 1.7187562504 1.3986900423 -0.5145845895
H 2.4752749426 0.3190924916 1.6258159761
