12
0
N 3.4011791232 0.3374998833 -0.1873831688
C 2.3137960988 0.0685277423 0.0588340881
C 0.924088445 -0.265322335 0.3644892303
C -0.1561762796 0.8324100684 0.1440053317
C -0.7908679577 -0.1055534429 -0.9026584573
N 0.1946754171 -0.9598308369 -0.6866418837
H 0.88359155 -0.7691500372 1.3319814675
H -0.7845046756 1.0526031441 1.005661368
H 0.2204164975 1.7617057021 -0.2810252352
H -3.493472343 0.016810625 -0.2297505332
H -4.1192307908 0.0472568782 0.177981667
H 0.3665649152 -1.8603993915 -1.1123528744
