14
0
N 1.4099250864 -2.1279220309 -0.149113651
C 0.4941502949 -1.2690840582 -0.1560076657
O 1.4103136097 1.1657883634 -1.3879615468
C 0.137727626 1.6342144406 -1.0346249533
C -0.7332811465 0.6190394911 -0.3149853322
C -0.7825678442 -0.8226126594 -0.7015791738
C -0.2190524846 -0.3479740434 0.6911046867
H 1.3730048774 -2.7050167314 -0.9853282467
H -0.4135965468 1.9966605123 -1.913321321
H 0.301346106 2.4887624403 -0.3746630402
H -1.7068786627 1.0365629679 -0.059702442
H 1.3187880567 0.3992783502 -1.9584436228
H -1.661518514 -1.4164620742 -0.9066449446
H -0.6168044582 -0.5351339684 1.6776612533
