15
0
C -0.8635059454 1.4745843172 -0.5070193444
C -1.376710409 0.0877358943 -0.2885873003
C -1.6051675186 -0.8017737229 -1.2452720054
C 2.2437411395 -0.1082975958 1.8503870199
C 1.9909691391 -0.6764194719 0.7009288789
N 1.8409958057 -1.2293310283 -0.3711511252
H 0.0577465164 1.6375785303 0.057804629
H -1.5870827059 2.2134604677 -0.1534845409
H -0.6637133954 1.6666691185 -1.5619874657
H -1.5688653545 -0.1932286942 0.7445182523
H -1.4341531387 -0.5659639008 -2.2912522479
H -1.9823211347 -1.7919905337 -1.0195341296
H 0.899432549 -1.171101365 -0.7595281355
H 2.1171434321 -0.6625277008 2.7687089282
H 2.5906000204 0.9142756855 1.8841135862
