16
0
C 1.9551329479 0.288932822 -0.2990420646
C 0.6864242422 -0.4497174923 0.0191258565
C -0.3942227206 0.3974328594 0.5990197911
C -1.3125716375 1.161965576 -0.317045977
C -1.8419327412 0.0348665548 0.5196262165
C 0.5480715609 -1.7502567564 -0.2063294716
H 2.7116137592 -0.3714645655 -0.7225933595
H 1.7598213062 1.0975861428 -1.0083585438
H 2.3680943856 0.7500540949 0.6025869514
H -0.090102855 0.9385799446 1.4904623081
H -1.5786207719 2.1771687435 -0.0532043662
H -1.2067711955 0.9817324843 -1.3796364236
H -2.4718195166 0.2765133537 1.3654664207
H -2.114030064 -0.8787770669 0.0083905681
H 1.3498216966 -2.3314920569 -0.6468142131
H -0.3630433963 -2.279224638 0.0447493069
