11
0
O 3.1312496521 0.2295989678 0.701139607
C 2.0328352394 0.5938591951 0.6202655389
N -0.144288554 -1.3194513873 -0.3608317981
C -1.0483107297 -0.208061853 -0.1955204285
C -0.3969907321 1.0335783129 0.334015582
C 0.8869300064 1.2002777006 0.6012226813
H -0.6393662828 -2.1542586357 -0.6379412975
H -1.8301226325 -0.4889981132 0.5196781294
H -1.5844814629 0.0925328197 -1.1120431984
H -1.0900937311 1.8610510189 0.4866113378
H 0.5585712272 -1.1255520258 -1.061191154
