14
0
O 1.1309893611 0.3837645688 1.957654703
C 0.7488022504 -0.777199067 1.4762750492
C -0.6040906615 -0.5823073918 0.8416509876
C -0.3291388652 -0.1781961382 -0.5973858435
C -0.2481708602 1.2944918242 -0.8657016176
C -0.1223937091 -1.0950458905 -1.5341864383
H 2.0151008068 0.2775592829 2.3247146448
H -1.1888973574 0.1922257136 1.3500533481
H -1.1406797665 -1.529409878 0.8672103859
H -1.2089188297 1.7749105435 -0.6610743491
H 0.0253096261 1.4959679767 -1.9013382319
H 0.4876988038 1.7685726481 -0.2111820631
H -0.1735650846 -2.1539037431 -1.3105797051
H 0.1036762862 -0.8144494493 -2.55649687
