13
0
C -1.5907218375 0.6531841254 0.3894417352
C -0.7844010709 -0.5954386995 -0.0397036748
C 0.3150988643 -0.0111710913 -0.8326636423
C 1.5435224412 0.1839272937 -0.0121380925
O 2.0633689218 -1.0788192838 -0.4521243381
H -2.4631719525 0.3343281236 0.9590586244
H -0.9994702184 1.3166750298 1.0236399971
H -1.9314748871 1.220201581 -0.4769225932
H -1.4301383981 -1.2371408475 -0.6406555967
H -0.4592184862 -1.1399369464 0.8568402973
H 2.1826010824 -1.0178547326 -1.4073459139
H 2.1864527656 1.0208397951 -0.2909233726
H 1.4537747754 0.1164466526 1.07808957
