11
0
N -1.9446729999 0.1982319392 0.2689211697
C -0.6062323147 0.0806049535 0.6741818193
N -0.1194114294 -1.3069350165 0.4895873001
N 0.9016692934 -1.3167121825 -0.1890312316
C 1.2560956897 0.0479271549 -0.5665600498
N 2.2421320623 0.398158631 -1.2476514632
O 0.3337246209 0.8738061494 -0.0608676766
H -2.3467798781 1.0901941804 0.5105237369
H -2.0815981703 0.0011858819 -0.7124913435
H -0.5124679136 0.3324989995 1.7334211305
H 2.7835950397 -0.4217436906 -1.5037953917
