12
0
O -0.5557490575 -2.0746961423 1.4024763733
C -0.176767465 -1.1488711044 0.7373193772
C 1.0835188338 -1.0539053126 -0.0537111282
N -1.2056500114 0.4695920252 -0.833523558
C -0.8714090473 0.1873904962 0.5738724152
C 0.024442349 1.0192595728 -0.2428142146
C 1.2090232399 0.1666271028 -0.570188288
H 1.7547862704 -1.8909514352 -0.1818670343
H -1.9282988528 1.182586153 -0.857229351
H -1.4986714878 0.5670957968 1.3684872326
H 0.1207194897 2.0873384763 -0.100852704
H 2.023321739 0.5074693714 -1.19655912
