14
0
C 2.3431956761 0.8122657632 -0.1713225211
C 1.6401451233 -0.2455879708 -0.5425228092
O -1.0574982671 -1.5583417001 1.3638571337
C -1.8410315201 -1.7228257712 0.4689111511
O -1.8888967544 0.7077173119 -0.6639898922
C -1.1405905013 1.3186935907 0.0482654737
H 2.5465258123 1.0193748764 0.8736839925
H 2.7503015381 1.5098556732 -0.8948159433
H 1.440550716 -0.4511795263 -1.58859835
H 1.2297018394 -0.9420849351 0.1808965386
H -2.9278375547 -1.5925836659 0.6121882648
H -1.5202366906 -2.0316289563 -0.5414533361
H -0.7515337157 0.8880923759 0.9873035414
H -0.8094987011 2.3407419342 -0.207092244
