17
0
C -1.5503291429 0.1840644702 -0.0912979023
C 0.386345717 -0.078181851 1.4207312707
O 0.559797787 -1.3839740367 1.4596330792
C 0.5931098641 -1.9527881564 0.2804584557
C 0.6512131215 -0.8726393987 -0.7393995083
C -0.0186971881 0.2973725569 0.017029945
C 0.4529727958 1.6661548142 -0.4469446167
H -2.0349857976 0.9652018308 0.496908345
H -1.8723723868 0.2892206449 -1.1316715814
H -1.8963568103 -0.7894312158 0.2666971685
H 0.0569534964 0.3631610376 2.3503464616
H 0.9614815405 -2.9654181657 0.2523995461
H 1.7088130534 -0.6162664525 -0.9377587021
H 0.1726143752 -1.1070451322 -1.6907535784
H 0.1435859314 1.8526980987 -1.4785641543
H 0.026877315 2.4573087567 0.1741170945
H 1.5397713286 1.7432301992 -0.3917733229
