14
0
O -1.1241155151 -0.330978168 1.3838034297
C -1.7303678605 0.641685167 0.6817220606
C -1.1653100315 1.7170532852 0.1403438977
O 1.6781839184 -0.0013522248 1.0588858335
C 2.1363281857 -0.5447223077 0.0821847767
N 1.5231785693 -1.5722724734 -0.6052411268
C 0.4475399478 -1.4206393464 -1.2434670471
H -0.1637052697 -0.1740476325 1.4235771135
H -2.7942838317 0.4499370723 0.5841739908
H -1.7769411303 2.4233852122 -0.4019790113
H -0.110086359 1.9326781672 0.2583641357
H 3.1465023728 -0.3131636594 -0.2887466223
H -0.0487804511 -0.4526235302 -1.3546100191
H -0.015063545 -2.2899955615 -1.704750412
