13
0
C -1.9994104079 0.5012920948 -0.3278933048
C -0.7769070663 -0.3826016473 -0.2984592387
O 0.3644684641 0.4794026586 -0.1838900744
C 1.5878547412 -0.0459902335 -0.1164648989
O 1.5963633568 -1.3866522253 -0.1927587134
N 2.6565065105 0.6109721909 0.0053308223
H -1.9704352919 1.1747707609 -1.1850302236
H -2.0646535746 1.0997924836 0.5812961288
H -2.8976750967 -0.113570884 -0.4016932002
H -0.7989140891 -1.0656461218 0.5529804258
H -0.6912009833 -0.9766174614 -1.2104972596
H 2.4691416818 1.6051816962 0.049816231
H 2.5228617553 -1.6438223116 -0.1336916944
