16
0
C 1.2900892255 0.7846313778 -1.5758864171
O 0.3157909776 -0.246397053 -1.5762737227
C 0.3167767544 -1.0437545905 -0.4885126413
C -0.5770643995 -2.0064718186 -0.3082635847
C -1.794159471 1.0457181519 0.5674196284
O -0.9365832028 1.8372990069 0.8440439101
H 2.2979592689 0.3680203078 -1.4873345759
H 1.2006998117 1.2974162775 -2.5310735224
H 1.1048827402 1.4941866985 -0.7658557596
H 1.1023798557 0.2752910311 3.0320572739
H 1.0976901251 -0.8404866525 0.2416343625
H -1.348437193 -2.204419841 -1.0415364192
H -0.5265254604 -2.6221052416 0.5775690363
H -2.0692946624 0.8265704901 -0.4790731789
H -2.3505737332 0.4952105165 1.3479470214
H 0.6659993632 0.7168153394 2.6180465893
