15
0
C -1.2447265234 -1.0894052222 0.8615904654
C -1.0709018159 0.350135529 0.6174260965
C -1.4203211056 1.5531723992 -0.1057662994
N -0.3835358613 1.3237650471 0.9826553365
C 2.5089776438 -0.3539824808 0.3337670663
C 1.8377601042 -0.57327381 -0.761368213
N 1.1367632726 -0.8441459783 -1.7233020065
H -2.2871972919 -1.3063080136 1.0995208257
H -0.600457898 -1.4187222943 1.6761027907
H -0.9867505957 -1.6346135361 -0.0486807108
H 1.3562225308 -0.341241377 -2.5782646077
H -1.0431238173 1.7212732527 -1.1108542043
H -2.2965508746 2.1330162259 0.1699852937
H 3.3954540167 -0.9310055317 0.5532511637
H 2.1724712157 0.42242779 1.0078320031
