15
0
C -1.9351051893 0.1188935897 -0.1450876891
C -0.62722884 -0.3765044513 -0.702051617
C 0.4775343148 0.6314878974 -0.7423412724
C 0.3455406252 2.0116216248 -0.3008064461
N 0.2003549914 3.1082150155 0.008828424
N 0.4563488898 -0.3426559839 0.3626947945
C 1.4622644297 -1.3957201897 0.445425142
H -1.8618152469 0.9209923125 0.6106906335
H -2.533068067 0.5108618799 -0.9696229527
H -2.4986291872 -0.7087090158 0.2891224857
H 0.2413027989 0.0954885101 1.2565211272
H 1.2871823224 0.4998826244 -1.4544611279
H 1.5884711604 -1.8090913826 -0.5519871123
H 1.0932681849 -2.1790949111 1.1062393255
H 2.404940813 -0.9970705199 0.8238752849
