14
0
C 0.8332220093 -0.4223773538 -1.3681273411
C -0.1093244625 0.0719148191 1.7935340314
C -0.501781079 -0.8944285393 0.75073905
C -0.4644368741 -0.1861145269 -0.6123685485
O -0.6283353451 1.1842557199 -0.2646765366
C -0.1431174426 1.3375439441 1.0623861604
H 0.9240725878 -1.4727151228 -1.6537348206
H 1.7005909124 -0.1637229347 -0.7555740157
H 0.8594256179 0.1845198698 -2.273285155
H -0.0287460321 -1.874550677 0.815641188
H -1.549894511 -1.0454619484 1.0752888183
H -1.3140241144 -0.4561053911 -1.2433336121
H -0.6732197473 2.147189126 1.5680826372
H 0.9314834809 1.6199980153 1.0814231442
