17
0
C 2.6570580723 0.7322724758 0.5065762339
O 1.3346162895 1.2049416676 0.3945029796
C 0.4535411415 0.2141231673 -0.0046159734
C -0.1507872942 -0.7317409844 1.0366456063
C -0.9387079869 0.3328471791 0.4036049017
C -2.0748171636 0.9880476987 0.3085758447
O -1.6170994547 -1.5359347602 -2.0966550647
H 3.0226269973 0.3396151313 -0.4499875372
H 2.7369388175 -0.058014736 1.2623971458
H 3.2765489246 1.5766975057 0.8044234882
H 0.6601719328 -0.224263115 -0.9812357254
H -0.3144674201 -1.7641453755 0.7496633391
H 0.1370066749 -0.5708514289 2.0702438585
H -1.8511131489 -0.7909257977 -1.5332497044
H -2.942010216 0.7005662688 0.8926615925
H -2.1671987579 1.8519374142 -0.3397568889
H -2.270093408 -2.2102213108 -1.9054070961
