11
0
C -0.1543395136 -1.1366354538 0.2041314375
O -1.2235180091 -0.1566394475 -0.107351778
C -0.5799464836 1.3262853371 0.0049059803
C 0.7860259911 0.9531452006 -0.1674242236
C 1.0777340583 -0.3569057748 -0.0861758195
H -0.283756117 -1.3987960753 1.263657357
H -0.3208260076 -2.0231156874 -0.4111036109
H -1.8767783013 -0.1596961411 0.5971227304
H -1.0285696429 1.8386995668 -0.8470685751
H 1.5291106786 1.7222748974 -0.342242931
H 2.0502773469 -0.816091422 -0.1604525671
