15
0
C -1.5075178108 0.7220961798 -1.2426498469
C -0.5650586332 -0.1580011545 -0.4698638252
O 0.7687851074 -0.1990489736 -1.0419803078
C 0.0363212092 0.3446706811 0.8580032879
O -0.3370225495 -0.239624388 2.059226287
C 1.3748323422 -0.0711011532 0.2291882126
O 1.7660670703 -1.2932719431 0.7847333466
H -1.669429738 0.3265491248 -2.2466717473
H -2.4720831954 0.7686568074 -0.7328183038
H -1.1063811101 1.7334854937 -1.3307481637
H -0.9624673514 -1.1737679082 -0.3660203646
H 2.4863998052 -1.6598829609 0.268257617
H -0.058270963 1.4267683175 0.9590570278
H 0.0755272909 -1.1092219147 2.0957907899
H 2.2131375265 0.6312637917 0.2000749906
