12
0
C -1.7246773445 0.4181281991 0.0621477013
C -0.6303615259 -0.3931511123 0.7173994568
C 1.1529792981 -0.5168743147 -0.7761016392
O 0.6608420022 0.0692323682 0.3100946679
N 2.3200267658 0.0488766209 -1.0498534752
H -2.7023703395 0.0864049938 0.4172367449
H -1.613946707 1.4786036024 0.2945707327
H -1.6881836019 0.2930705198 -1.0211961021
H -0.712695463 -1.4505796312 0.4611173695
H -0.6512326733 -0.2860864219 1.8032117589
H 2.8416493318 -0.2813987501 -1.8388412967
H 2.7116992574 0.797624926 -0.490906919
