16
0
C -1.9097503517 -0.8556726144 -0.6798797534
C -0.5881997743 -0.1282100027 -0.5225049629
O -0.813853574 1.3221143695 -0.6364792559
C 0.0797381679 -0.4670501214 0.7538314216
N 1.4559642412 -0.2177462776 0.8506301796
C 2.1828856485 0.748737009 0.3762776044
O 1.7309041455 1.7550925718 -0.3395810584
H -1.7457148191 -1.9269776946 -0.8077576124
H -2.4446831613 -0.4789364766 -1.5514551773
H -2.5337104629 -0.7074721516 0.2047050356
H 0.0347636893 -0.3204132251 -1.4094658102
H -1.1925320409 1.5735129716 0.2150290748
H 0.7389214895 1.7079091337 -0.4819105401
H -0.1775593212 -1.416698993 1.2020338043
H 1.9703138947 -0.8491712932 1.4465417747
H 3.2360532289 0.7745877948 0.6178262754
