13
0
N 2.2040722529 -0.2366538635 0.1883510959
C 1.0258889648 0.1711718831 0.1752153336
C -0.1672288499 -0.6649004329 0.5124165186
C -1.1265048463 -0.8455280243 -0.6631237576
C -0.2022595557 2.2724261991 0.081579019
O 0.7958839294 1.5203916687 -0.2656434668
H 2.8518637966 0.4935812362 -0.1024821311
H 0.2379665315 -1.6230334345 0.8327679884
H -0.6918878349 -0.2400694945 1.371275251
H -1.9449848129 -1.5061613685 -0.3781328349
H -0.6134087044 -1.290999328 -1.5164203886
H -0.8513270704 1.6767181169 0.7700867335
H -1.5612538007 0.100089842 -0.9908953613
