11
0
O -2.176391245 0.4067577485 -0.6192600283
C -0.867618551 0.2010614065 -0.4901746106
N 0.0818622952 0.9985437808 -0.3216736052
C 1.2624235695 0.1705182553 -0.2565521992
O 2.4233639316 0.8392744709 -0.0797078973
C 1.1170594464 -1.1636668035 -0.3776438504
N -0.4151613419 -1.1844000294 -0.5491883775
H -2.3417665122 1.3546518816 -0.5643068954
H 2.2176539139 1.7734051681 -0.0086366823
H -0.6501630072 -1.6237180236 -1.4378370945
H -0.8298754993 -1.7522368552 0.1880122406
