16
0
C -1.4043424054 1.7063495371 -0.540598007
C -0.189483104 0.9272459035 -0.1907895589
C -0.0503614728 -0.4456086913 0.3296405859
C -1.1075532561 -1.2186987261 0.5922482037
C 1.3831327109 -0.7906068303 0.506197506
C 1.9861422224 0.3450549799 0.1059916036
N 1.025574625 1.3598453846 -0.3068978638
H -1.9321822565 1.2293842254 -1.3689573491
H -1.1636338737 2.729019397 -0.8305391088
H -2.0899753003 1.7423553518 0.3074444148
H -0.9547304342 -2.2208145736 0.9742181345
H -2.1297029569 -0.886207935 0.4376982056
H 1.1610245889 -4.2837831277 0.3110627821
H 1.3273921486 -3.5587509587 0.4158790603
H 3.0254150471 0.6336167755 0.0328531375
H 1.255884717 2.2834492881 -0.6455117465
