15
0
C 2.384457243 0.5894129965 -0.3254094683
O 0.997141093 0.3797200338 -0.3614680781
C 0.6031547676 -0.8462268992 0.2186349464
C -0.8870120554 -0.8905379578 0.2730437606
C -2.849735965 0.5448923714 0.2786713931
N -1.5621145166 0.2405713444 0.1924699136
H 2.9180764112 -0.1860502532 -0.8885856986
H 2.7620583181 0.5960546732 0.7047813815
H 2.5811542819 1.5577669235 -0.7832919271
H 1.0640704084 -0.9242401486 1.2199486635
H 0.9894084349 -1.6901381278 -0.372645721
H -1.4211328058 -1.8118685767 0.4475013239
H -3.5680690186 -0.236835005 0.4655875001
H -3.1390115451 1.5667338041 0.1084952428
H -0.9445630515 1.0257458215 0.0019057677
