14
0
C -1.3526283022 0.3945979145 0.7452599242
C -1.0840623448 -0.6441356006 -0.3279892471
N -0.1482730393 -0.1220132827 -1.3214223853
C 2.3332604135 -0.315720785 0.2806009531
N 2.2313141922 -1.3085098412 0.8470160945
C 2.529410685 0.8983686776 -0.3620387613
N 2.7502588673 1.9084902843 -0.8591271602
H -1.7986285108 1.2958017495 0.3160513063
H -0.4271833845 0.6848147018 1.2459840061
H -2.0420114285 0.0090568504 1.4976456191
H -2.0360837235 -0.9698461822 -0.7688074111
H -0.6263957825 -1.527676129 0.125377999
H -0.5126086682 0.7204492095 -1.7486899867
H 0.0022290262 -0.7917715668 -2.0641909504
