12
0
C -1.6726698533 0.5783773723 -0.0067261399
C 0.1232728957 -1.1454059203 0.713466935
C 1.3147635422 -1.2228024317 0.047835271
N 1.5855631375 -9.06227e-05 -0.578047252
N 0.7414193468 0.9121864297 -0.4237548464
C -0.2537537129 0.2733252532 0.4509772816
H -1.8216252437 1.6502298764 -0.1381393075
H -1.8790980155 0.075710928 -0.9518647434
H -2.3713999306 0.2008693853 0.7371153392
H 2.0328063714 -2.0188971651 -0.0895880878
H 2.4110782352 0.2086948095 -1.1325462946
H -0.0717577729 0.7801870854 1.4166228448
