13
0
C 2.1508770118 -0.1209707073 -0.5242176473
C 0.7272366849 -0.4559569646 -0.6601413768
N -0.0575501743 -1.4029487146 -0.8435041735
C -0.6507626355 -0.0195843287 -0.6047300602
C -1.2814882252 0.2387439981 0.718353264
O -2.5934498046 0.5828261051 0.6947276616
N -0.6177052908 0.1509451597 1.7847760578
H 2.7683534088 -1.0052984616 -0.674061508
H 2.3143996089 0.2802661225 0.4768568548
H 2.4239799252 0.6495227313 -1.2464563792
H -1.1204565813 0.4494827988 -1.4680039745
H -2.9477636853 0.4768230388 -0.1918821353
H -1.2054862427 0.3174422223 2.5975404163
