15
0
C -1.4657928385 -0.8054614834 -0.7515852912
N -1.5130020423 0.7644101701 1.1426532594
C -0.7360213045 -0.2903956125 0.4827517573
C 0.5980460817 0.3370761414 0.2492391139
C 1.7513711968 -0.3291396545 -0.4104672364
C 0.4910365204 1.5677645154 0.7497893139
N -0.8120331323 1.7838657573 1.2838998173
H -1.5825092022 -0.007728274 -1.4864392444
H -2.4558190382 -1.1664017326 -0.4755405362
H -0.913110346 -1.6259038896 -1.211488489
H -0.6512889749 -1.1004667579 1.2192443921
H 2.6272738483 0.3181336069 -0.4322582256
H 1.5032770764 -0.6022984167 -1.4395686042
H 2.0203398091 -1.251462403 0.1098616847
H 1.2171913462 2.365705033 0.7977202885
