11
0
C -1.6496976869 -0.0015198723 -0.1243186151
C -0.1734319134 0.1289588212 0.0215894348
C 0.6030320482 1.2379312029 0.3647333088
N 1.8352998529 0.6599052268 0.3042966896
N 1.9217641851 -0.6165796714 -0.0186159564
N 0.6662643831 -0.9190336473 -0.1881288398
H -2.1054211057 0.9386673619 0.1782067741
H -1.9414382312 -0.2040311873 -1.1577688296
H -2.0560746585 -0.7961027144 0.5060689129
H 2.7085970026 1.1256500554 0.4876619993
H 0.4460801238 -1.8674365755 -0.4469618783
