17
0
C 2.5664565293 1.0425593315 -0.8893747873
O 1.8037577192 -0.0087777339 -1.4373573062
C 1.0921226339 -0.7562491981 -0.573615992
C 1.0077489695 -0.6230958048 0.7466217815
O -2.2835616167 -1.8080431992 -0.3982327863
C -2.2646570979 -0.6082486085 -0.3435942265
C -2.6283321039 0.1952693581 0.8663432489
H 1.9261213645 1.7635969411 -0.3706527042
H 3.3149043851 0.6615721219 -0.1873932068
H 3.0643143235 1.5314888489 -1.7235953246
H 0.5505382971 -1.5328768226 -1.1020306836
H 0.3881811592 -1.3191441558 1.2938648842
H 1.5392705917 0.1320808488 1.3086485886
H -1.9591725652 -0.0143796629 -1.2302371038
H -1.7681015421 0.8057040354 1.1535988967
H -3.4430503915 0.8809749905 0.6197652478
H -2.9188086558 -0.4549012904 1.6893814735
