16
0
C 2.6006867571 -0.8251718434 -0.1284993989
O 1.3145673597 -0.7446755408 -0.68396751
C 0.3997754244 -0.0874170514 0.1562297261
C -1.7582266049 1.6710424398 0.8108413478
C -2.1475689575 0.3428142511 0.3375021282
C -0.9310944342 -0.0370578186 -0.5724584633
H 2.5921797061 -1.3673940562 0.8261050759
H 3.2302767818 -1.3641275673 -0.8350628525
H 3.0272888275 0.1717205767 0.042290538
H 0.2916855517 -0.6295384468 1.1076199186
H 0.759170607 0.9210185346 0.402696762
H -1.9945322638 2.3701797814 -0.0166297051
H -3.0409675163 0.3012422154 -0.2967321455
H -2.2211425328 -0.3997856512 1.1353353898
H -1.141718737 -1.0315210023 -0.9694404981
H -0.8631639688 0.640593179 -1.425994313
