16
0
C 2.3467710181 -0.4178450909 -2.1780930507
N 1.0107146885 -0.0685872438 -1.7576520785
C 0.6113702201 -0.4861748358 -0.6405289463
C -0.7377243874 -0.150268933 -0.1352822266
C -0.9655560397 0.0904830782 1.2921906241
O -1.3477122064 -1.134326501 0.6939415147
C -2.0646105027 0.9861177903 1.7803185256
H 2.9182218363 0.4972604859 -2.345870017
H 2.2937563871 -0.9414145897 -3.1345157694
H 2.8843371699 -1.0464887493 -1.4557930251
H 1.2272942503 -1.1159373348 0.0187649262
H -0.1039897042 -0.0013997765 1.9532170408
H -1.3933580332 0.3268585062 -0.8585692533
H -2.4683726061 0.6124697426 2.7230371705
H -1.6851949032 1.9959731676 1.9479416451
H -2.8754131873 1.0325822839 1.05291392
