13
0
O -0.2449632693 1.0689971638 0.4332295421
C -1.0121513702 -0.0741669557 0.2001095697
C -1.178555536 -0.5173573148 -1.2289823307
C -0.091557067 -1.0909591749 -0.3595433927
O 1.1680881995 -0.4914555897 -0.4250590121
C 1.0455201159 0.8830491998 -0.1155871779
O 2.0209185871 1.293440385 0.7432258039
H 1.9465441574 0.7743846821 1.5507859446
H -1.7627604528 -0.2513552625 0.9563629784
H -2.0201220791 -1.1628026113 -1.4446147969
H -0.9045366899 0.1680664297 -2.0207506911
H -0.0581486949 -2.1337818553 -0.0796288305
H 1.1619380995 1.4866099036 -1.0198506068
