15
0
C -1.3280793216 0.3987260741 1.2869077482
C -0.7277692381 -0.3004934076 -1.0282938034
O 0.0229602334 0.6717002082 -1.4989731597
C 1.2071203003 0.8513054868 -0.9713392877
C 1.6481173901 -0.3110422184 -0.198982993
O 0.7659896011 -0.6632653633 0.8555457679
C -0.5890637638 -0.6378740267 0.4288220613
H -1.1432047149 0.1985429524 2.3426982884
H -2.4024187638 0.3494595267 1.1025821543
H -1.6893541805 -0.3645131695 -1.5180145675
H -0.9739044209 1.4069312696 1.0636601593
H 1.8178770041 1.5958401247 -1.4551944742
H 1.613134984 -1.1576471651 -0.9285850008
H 2.6478760785 -0.2084087355 0.2148445105
H -1.0355461878 -1.6234945563 0.5996945963
