12
0
O -2.3310079212 -0.6748318855 0.0316359442
C -1.0275192598 -0.4033368633 -0.05968424
C -0.425480164 0.9332513972 -0.3604116913
C 0.9411839044 0.1712980553 -0.2679506949
C 0.1235946152 -1.0706172318 0.0436263773
C 1.8398014909 0.6347997447 0.7847319527
N 2.5438404628 0.9900544455 1.6185682655
H -0.645205764 1.344767603 -1.3458840405
H -0.5714567489 1.6964785492 0.403529941
H 1.4882173695 0.1483996261 -1.2123577747
H 0.4145881516 -2.0878672841 0.2600348248
H -2.4598321364 -1.6040801565 0.2416101357
