11
0
C 1.2695848332 -0.78771442 -0.2306628883
N 0.4691246397 -0.9750535145 0.960726144
C -1.4927013479 1.6175623681 -0.3729559976
C -1.075873724 0.5684841635 0.2838496843
N -0.7804509704 -0.4011040508 0.9679618566
H 0.7340679758 -1.0611470962 -1.1496994396
H 2.1667665808 -1.3992005949 -0.1408523743
H 1.5741202795 0.2569775707 -0.3103702849
H 0.3647114348 -1.9382563856 1.2350173526
H -1.3565975622 2.6099571002 0.0368444248
H -1.9797421392 1.5122058595 -1.3330754776
