12
0
C -1.434668934 -0.1924733261 0.2478996194
C -0.1331225716 0.3935226209 -0.3190023227
C 0.9176107191 -0.6820534566 -0.4626553371
N 2.0172087918 -0.6412520637 0.1454753993
N 0.6258646611 2.4308943111 1.1243808114
C 0.3280112668 1.5225957441 0.4919961789
H -2.2131596582 0.5680095046 0.2881751456
H -1.7823640108 -1.0107809978 -0.3843542874
H -1.2718752229 -0.5753107618 1.25548677
H 0.6180670948 -1.4981446117 -1.1317535517
H 2.5884752664 -1.4560319987 -0.0655161535
H -0.3363364027 0.7848160355 -1.3223942722
