21
0
C -1.8152450362 1.3719055852 0.1125738894
C -2.0866497456 -0.0637250481 -0.2006573461
C -2.583626251 -0.5133553251 -1.3430348307
C 1.0439335074 -0.7935332696 1.8831572306
C 1.6982175219 -0.0803244492 0.9794611209
C 2.1958357776 -0.5958986403 -0.3359550581
C 1.5840586461 0.1462162717 -1.5234379111
H -2.074843754 2.0208406506 -0.725138893
H -2.3849421272 1.694024141 0.9881479458
H -0.758618554 1.5178173347 0.3514677102
H -1.8394875895 -0.7768033928 0.5820758994
H -2.8385009948 0.1617798448 -2.1538248168
H 0.5011241238 0.0099013376 -1.5518243176
H -2.7545985351 -1.5698387669 -1.5110056711
H 0.7009560261 -0.357634768 2.8138540128
H 0.8275481771 -1.8450600506 1.7225859899
H 1.8928639036 0.9723159767 1.1809262195
H 3.2857167141 -0.4907287986 -0.3690245
H 1.9807147067 -1.6650768388 -0.4119829507
H 1.9958743749 -0.2181527181 -2.4661781143
H 1.7865421082 1.2185589238 -1.4638156089
