15
0
C 2.1130447009 -0.0655383617 -0.7989602931
C 0.7184084097 0.0918658685 -0.2764185434
C -0.0060654427 -1.0515695692 0.2757412397
C -1.308632798 -0.9485353617 0.5258127563
C -1.9977331118 0.3218034899 0.1272115958
O -1.1427636835 1.4511745359 0.2887682199
C 0.1124100648 1.2806084139 -0.1889746797
H 2.5404567179 0.8971179758 -1.0826097145
H 2.1366783829 -0.7127007899 -1.679686241
H 2.7662332742 -0.516583208 -0.0469595955
H 0.5469623843 -1.9513120435 0.5238131004
H -1.8790802466 -1.7459857559 0.9854948499
H -2.8748488376 0.5251767071 0.740038703
H -2.3172604197 0.2763919236 -0.9265454668
H 0.596172605 2.2226991753 -0.4212989311
