16
0
N 1.2245265482 0.3873237413 1.4784048319
C 1.1821245421 -0.7198882379 0.6627176793
O 2.3524950954 -1.4113281383 0.7240579487
C 0.1284683474 -1.1041393441 -0.071220838
C -1.1964122873 -0.3981136428 -0.0507084197
C -1.3096861862 0.8030776431 -0.9757626001
O -0.490673551 1.8501874759 -0.4635815068
H 2.1409955833 0.58737095 1.8407492833
H 0.7421609061 1.1894123762 1.0998892926
H 2.2281220334 -2.2599102756 0.2940403685
H 0.2388948285 -1.9779956465 -0.7035185287
H -1.98506196 -1.1028907418 -0.3278525632
H -1.4326972665 -0.061013784 0.9651728297
H -0.9849053838 0.5265269827 -1.98557025
H -2.352878431 1.1407971483 -1.0266490907
H -0.3877958189 2.5279244936 -1.131430437
