12
0
C 1.2699295459 -0.4782961482 -0.3271724907
C 1.1074042565 0.8767678285 0.3199458102
C -1.1438135919 0.7677829659 -0.3694554972
O -1.113603361 -0.5548937818 -0.8962995729
C -0.1371255383 -0.9484135817 0.0683559359
C -0.2144505955 0.3988835801 0.833101778
H 1.9898048311 -0.92027783 0.38323196
H 1.6708163013 -0.5926963872 -1.3351512488
H -0.7493869388 1.5158553461 -1.0673094941
H -2.1423164382 1.0630506357 -0.046654541
H -0.3087214715 -1.9554106925 0.4489334832
H -0.5959089995 0.618882065 1.8258868774
