14
0
C -1.8505456409 -0.6087024031 -0.2855154995
C -0.3440726564 -0.3790761784 -0.2480721595
C -0.0271499766 1.0817962134 -0.0849965202
N 0.6795276625 1.457056169 0.8905122793
C 3.0058498361 -0.7494879567 -0.727542302
O 3.7395313855 -1.0169084624 0.0799730188
O 0.2494018843 -1.1317784471 0.7736918364
H -2.3073443356 -0.2732924203 0.6472162362
H -2.0507731813 -1.673128724 -0.4042903009
H -2.3122292704 -0.0757296821 -1.1201015378
H 0.0831033558 -0.687272801 -1.2145471748
H 0.6884606994 -0.4957306569 1.3582605416
H -0.4397792189 1.7605858373 -0.8384400289
H 0.8267184569 2.4612195125 0.9082326113
