11
0
N -1.3952915399 0.1206540038 -0.2663155684
C 0.0219138487 0.3333665987 0.0726914857
C -0.8535499391 1.2824591544 0.6579528927
O 0.9239207791 0.5371822519 -1.0290845913
C 1.7274383625 -0.4448540102 -0.5029254823
O 2.7961465862 -0.8179559758 -0.8375289613
N 0.8207093149 -0.7833296863 0.5102808486
H -1.7933988733 -0.7427828088 0.0788672014
H -1.7298307664 0.4111603377 -1.1731261778
H -1.1138879733 1.0380824264 1.6874626838
H 1.1206612005 -0.8938012917 1.4665646686
