10
0
C -1.3207212768 0.2063771657 0.1165730033
C -0.3594204151 1.333262181 0.0259316705
N 0.861232481 0.9674413994 -0.0811682989
C 0.8222293931 -0.464249186 -0.0706360397
N 1.8230197339 -1.2248405676 -0.1568593787
C -0.5882908058 -0.9044801604 0.0566953772
H -2.3924723557 0.3016428797 0.2116730684
H -0.6362222617 2.382606221 0.0451830615
H 2.6687606978 -0.6589288739 -0.2344044524
H -0.8980801909 -1.9374110591 0.0890409888
