13
0
N -2.1212156936 0.3710678201 -0.2009845735
C -2.0020945751 -0.9077381247 0.1442789806
O -0.7777623116 -1.4185349579 -0.007200936
C 0.3524941259 -0.6867096612 -0.4756381438
C 1.0108223444 0.0663579769 0.6829004078
C 2.1623104192 0.8363436392 0.2244864844
N 3.0545322344 1.4388461681 -0.1705489034
H -1.4088251872 0.976144877 -0.5890967201
H -3.0390743312 0.7688790136 -0.119919629
H 0.0996965049 -0.0145016586 -1.3000446373
H 1.0389368052 -1.4333444673 -0.8714924475
H 0.3025991513 0.7459424134 1.1606740958
H 1.3331435135 -0.6473510387 1.4424460219
