13
0
N 1.2555227551 -0.5950555622 -0.1086388727
C 1.9820208074 0.4255197074 -0.6212092628
O 1.7067777957 1.5968946012 -0.5108687388
C -1.1851816402 -0.3808025537 -0.3650020986
C -0.0094688411 -0.3752503878 0.5710052724
C -1.944039784 0.6766553033 -0.5975214595
H 1.5528286909 -1.5328746804 -0.3097513691
H 2.8860400157 0.0739227409 -1.150699271
H -1.391511015 -1.3189614006 -0.8754282166
H -0.1243143755 -1.1513527113 1.3315877952
H 0.055099112 0.5862779946 1.080128841
H -1.7446053049 1.6280215035 -0.1162528876
H -2.7826002162 0.6338834454 -1.2817947318
