16
0
C 2.9821478468 -0.7350866574 -0.1583095011
C 2.7301236829 0.6606041429 0.164127461
N 2.4928870512 1.7567296793 0.4065092321
O -0.1904790616 0.2542538769 -0.6680434458
C -1.145546459 0.0420841253 0.3280254171
C -2.3771972569 -0.6776450661 -0.0869762985
C -2.4405832754 0.7871573773 0.2670528075
H 3.2822129067 -1.2771717167 0.7375727211
H 2.0623096825 -1.1651691952 -0.5553153267
H 3.7722894392 -0.811253717 -0.9041194776
H 0.2676698806 1.0785310784 -0.4759911745
H -0.7352620479 -0.1771075682 1.3105034535
H -2.4494738685 -0.9304048433 -1.1364626773
H -2.8110634959 -1.3992866738 0.5921541257
H -2.5614669538 1.484124003 -0.5517094024
H -2.912575071 1.0812921545 1.1952910857
