16
0
C 0.3387915046 -1.1573292368 -0.2691687327
C 0.3963760163 0.169835961 0.3803621452
O 1.5959693659 0.7805387857 0.6684934428
C -0.393581234 0.0119192145 -0.8858921215
N -1.6684438197 0.4619613822 -0.2219450093
C -2.018710659 -0.4130904975 0.8988616954
C -0.9264758879 0.5589401868 1.060862147
H 1.2439689009 -1.3804081642 -0.8216790174
H 3.287515388 0.6385986199 -2.287240298
H -0.1332678413 -2.0288986361 0.1652184396
H 1.5012020552 1.7272914126 0.5368688597
H -0.2187159269 0.3288534061 -1.9038433387
H 2.9778938506 0.6265985007 -1.6084969904
H -1.832148787 -1.4768473283 0.849814035
H -2.9759575224 -0.1502800671 1.3338895983
H -1.0087974032 1.4438444606 1.682792145
