15
0
C -0.2592395916 1.071317913 -0.1908757037
C -0.3691454116 -0.4606073084 -0.1466277328
C -1.5440544532 -1.2435634346 0.3374505243
N 0.5403126708 -1.0358587174 -1.102817374
C 1.0983607885 -0.5961974703 0.1746640813
C 1.2216410052 0.8914524654 0.1748703909
N 2.1742527714 1.6374710214 0.5139443918
H 1.9158742789 2.6197224273 0.4335791949
H -0.7948184452 1.5785256692 0.6143432546
H -0.506711462 1.5432472058 -1.1447771331
H -2.3801342001 -1.1486962841 -0.3595390892
H -1.2852610645 -2.299314911 0.4145212328
H -1.8752186062 -0.8880384367 1.3148702823
H 0.7763011768 -0.4177814582 -1.8714621851
H 1.6397045428 -1.3070206815 0.7836438651
