12
0
O -1.3157938011 -0.7346108884 -1.583159324
C -0.4718696484 -0.7383420583 -0.479727645
C -0.7815296852 0.1277545053 0.7750932084
C 0.7284824213 0.4635214152 0.9026091253
C 0.8291329388 0.0475575735 -0.5577359662
O 1.4625086197 0.4298515805 -1.4965485364
H -0.2698963276 -1.7693636456 -0.1653321936
H -1.253895175 -0.382089326 1.6112007122
H -1.3651179746 1.0046866349 0.4963102389
H 1.0212255727 1.4871209813 1.1273694069
H 1.2624808407 -0.2232481346 1.5607415412
H -0.8979737811 -0.2155016378 -2.2767555677
