12
0
C -1.9220253584 0.2503947178 0.432877932
C -0.6843301884 -0.236383598 -0.2056629813
C -0.3464129173 -1.1053167008 -1.2843366521
C 0.4549928358 0.0657920774 -1.6581408751
C 0.6627000207 0.0768404416 -0.2469295167
C 1.8172340107 0.1279182186 0.6699646066
H -1.7553223358 0.492227431 1.4828203216
H -2.7108219204 -0.4955095199 0.3437160241
H -2.253196319 1.1607267613 -0.0742710963
H 2.1407825863 -0.89290604 0.8913583677
H 1.5498640318 0.6063857395 1.6124948069
H 2.6480665542 0.6579244713 0.2064290626
