16
0
C -1.4790350092 -0.96528584 -0.4789021983
C -1.3899422329 0.9115278702 1.1476314318
C -0.4833840379 1.8958756234 0.9496088083
C 0.7382432773 1.4557219065 0.2838768646
C 0.6753950344 0.1500784659 0.0233170314
C 1.6238839375 -0.8099741953 -0.6024891081
N -0.6297470015 -0.2975146629 0.5266764698
H -2.4290357228 -1.2088741374 -0.0109917016
H -1.6495517301 -0.2590068514 -1.2888662666
H -0.9907265371 -1.8635459958 -0.8576760973
H -0.6523511372 2.919295685 1.2558490361
H 1.5843666486 2.0820959682 0.031123385
H 1.2260996205 -1.2481427456 -1.5226363079
H 2.5492463703 -0.2945278262 -0.8563997706
H 1.8781523147 -1.6339677642 0.0711434798
H -0.5033057946 -0.9271695005 1.3180629438
