16
0
C 0.7996562278 0.7066583978 -0.1321185285
O 1.4466387992 -0.5668839764 -0.2577767815
C 0.2686651051 -1.1510258026 -0.8520607064
C -0.1405262215 -2.4363743027 -0.180809222
C -0.5446064383 0.1209871568 -0.5674248661
O -1.0023180415 3.4527095844 -0.2579484597
H 0.8667875545 1.096776959 0.8877201005
H 1.2148908483 1.4431891609 -0.8266241966
H -0.1534892089 3.8446356725 -0.0468206813
H 0.4357004054 -1.3180390337 -1.9231879378
H 0.6367041357 -3.193265978 -0.3003540443
H -1.062776446 -2.8195177839 -0.6243721831
H -0.3048244667 -2.2754571055 0.8865207298
H -1.0266866006 0.60137254 -1.4150771612
H -1.2650344784 -0.0021795749 0.2418182993
H -1.286295174 3.0144380863 0.5457206388
