14
0
N 1.6691352152 -2.8349394234 -0.3366327142
C 0.7451174629 -2.0810451914 -0.0812208032
O 0.8948292553 1.5216035326 -0.4839806688
C -0.0928027387 2.181786442 -1.2601217173
C -0.4519022822 1.104062524 -0.3449823284
C -0.7730252991 -0.2842289371 -0.836790085
C -0.3188793491 -1.3524307005 0.1244544337
H 2.584094667 -2.5117132178 -0.0332697604
H -0.0533535736 1.9804943093 -2.3276745261
H -0.2862619643 3.2152913654 -0.9873097609
H -0.8963694181 1.377216986 0.6112730638
H -0.2965662696 -0.4298327299 -1.808226196
H -1.8535053877 -0.3641601089 -0.9906905746
H -0.8518943182 -1.4993808503 1.0563536372
