14
0
C -2.3646570805 0.0899907473 -0.0535928036
C -0.9985296403 -0.2770354295 -0.583542946
N -0.0269993268 0.6526091332 -0.2732405184
O -0.7630686479 -1.2995817832 -1.1711993985
C 2.134315988 -0.4613107191 1.0037562863
C 2.1778957009 -0.0037237458 -0.2333044057
O 1.1650789133 0.5678078584 -0.9568804521
H -2.7306345248 -0.7367245616 0.5532697642
H -2.369779533 1.0021824644 0.5432774138
H -3.0410776309 0.2096076302 -0.9000870019
H -0.2916270442 1.6142079471 -0.1284353639
H 1.2329236529 -0.4412225054 1.5985924125
H 3.0307793293 -0.8864249948 1.4301705393
H 3.0634888442 -0.0279860411 -0.8553955262
