12
0
O 2.2585159149 0.533554967 0.2357612999
C 0.9817718347 0.199720579 -0.0062816837
N 0.1057468002 1.0439261487 -0.4594085005
C -1.2222723248 0.6531671468 -0.1811985436
C -1.0056761304 -0.8300359957 0.0023776368
N 0.3657394487 -0.8982378327 0.5912888597
H 0.3715007889 1.9339689914 -0.8491067904
H -1.9398375577 0.9756622348 -0.9291792849
H 2.7738265958 -0.2765138289 0.2841932873
H -1.7232128186 -1.3373857903 0.6433445138
H -0.9408088231 -1.3827824995 -0.9542972001
H 0.3192032713 -0.7245731208 1.6015214056
