15
0
C 1.4900535988 -0.3873652597 0.9282246257
C 0.2943641941 0.0373813345 0.1208831749
C -0.5728732181 1.2052426616 0.546247437
C -1.1457328747 -0.1739865076 0.5239645952
O -1.8884711644 -0.5662032532 -0.608013039
C -1.0253042021 -0.5472346682 -1.6611922526
C 0.2282192871 -0.241812553 -1.3413674265
H 1.3122791991 -0.2449714911 1.9957102469
H 1.7208723046 -1.4412143915 0.7591169962
H 2.3693439938 0.2019312646 0.657607911
H -0.8870909664 1.915115743 -0.2079768591
H -0.3953108341 1.6186454347 1.5313226364
H -1.4742737914 -0.6620575658 1.4314919281
H -1.4681640211 -0.7801712095 -2.618160037
H 1.0643464949 -0.2056775386 -2.0224839372
