10
0
O 3.0300667617 -0.0861815571 -0.596722486
C 2.3754748231 -0.48983623 0.2643166645
O -0.1057951218 0.4562620868 -0.7995830581
C -0.9703248597 0.8399731698 0.2576405482
C -1.1479413662 -0.4327922213 -0.4297788895
O 1.75301327 -0.9100246144 1.146661331
H -0.5156809563 0.8498936375 1.2436055507
H -1.6327858778 1.6695755847 0.0312397231
H -0.8215174948 -1.3468229275 0.0567271565
H -1.9399481782 -0.5426329286 -1.1640155404
