15
0
O 2.3154944944 1.024479527 0.2908261637
C 2.0418164437 -0.1509619876 -0.452390216
C 0.6596439417 -0.4223035241 -0.8071618623
C -0.3085094623 0.5358064264 -0.2759041458
C -1.7752266738 0.1235519042 -0.3647666317
C -2.0635048908 -1.0637846363 0.5135321066
O -3.0136040784 -1.1656554216 1.2392819767
H 3.2556844446 1.0744502848 0.4699986932
H 2.2985787538 -1.0698833064 0.1109656005
H 2.6481788547 -0.2071133349 -1.3672918822
H -1.3127317443 -1.8805399398 0.4410527461
H -0.0402565436 0.9550417776 0.7019714523
H -0.1123090706 1.3771791884 -0.9712633539
H -1.9895115231 -0.1879923674 -1.392458725
H -2.4543199461 0.9341884098 -0.0983279222
