16
0
C 2.5231903659 0.3022056625 -0.2070678322
C 1.0922365737 0.8075111159 -0.2218987353
C 0.0579686129 -0.2760380579 0.0117967613
C -2.3843214015 -0.9343105132 0.2657371081
C -1.3711649216 0.1937477516 0.1980699751
O 0.3555423489 -1.4438879793 0.0479299701
H 2.6709555558 -0.4708478438 -0.9607969755
H 2.7721581508 -0.1371031876 0.7595073078
H 3.2224403609 1.1157669175 -0.4046442643
H 0.8513865834 1.2733669656 -1.1845331496
H 0.9361307706 1.5937468773 0.5240102559
H -2.383812477 -1.5152135127 -0.657125385
H -2.1487449579 -1.6202432557 1.079045371
H -3.3895839196 -0.5411226626 0.4234864179
H -1.6057020483 0.8970709829 -0.607799464
H -1.3909975971 0.7929977395 1.1156486386
