12
0
C 1.8727846059 0.633371788 0.7409172921
O 1.6782051099 -0.4032199675 -0.0226859293
C 0.5560216979 -0.9135408896 -0.4073981293
C -0.6920971845 -0.4035250572 0.1504918978
C -1.6474207897 0.4289491534 -0.6009734785
O -1.88261078 -0.9488107589 -0.3686620244
H 2.9062652281 0.8619893758 0.9321231423
H 1.0402974779 1.2500748242 1.0425192448
H 0.632494882 -1.7861026903 -1.0353755661
H -0.6744400109 -0.2677788638 1.2401133631
H -1.4186294801 0.6914836417 -1.6292675193
H -2.3041947566 1.1065584442 -0.0627322933
