19
0
C 3.2707870117 0.8156395169 0.010647737
C 0.1246241066 -1.2003654485 0.8868113892
O 0.902483279 -1.3917852951 1.7847977233
C -0.2506461213 0.1339853455 0.3879532674
C -0.5535680197 0.2910006668 -1.0883746222
C -1.6580480157 0.4179872175 -0.1064862966
C -2.7726443007 -0.595139828 -0.0321048885
H 2.7908024357 0.4422057567 -0.8933928839
H 4.3518486861 0.7387171121 -0.0968966799
H 2.9977093518 1.8595047072 0.1627442651
H -0.3481401736 -2.0611010278 0.368750498
H 2.9444710578 0.2231400986 0.8641106544
H 0.268744777 0.9442838173 0.8830559858
H -0.5227590143 -0.6103004565 -1.6902635326
H -0.1609656979 1.1725912733 -1.5761871717
H -1.9720909807 1.433034353 0.1101034388
H -2.4476489597 -1.5895359368 -0.3401033109
H -3.5876196178 -0.3005964267 -0.6959328026
H -3.1742968043 -0.670879446 0.9801112301
