17
0
C 2.5212032563 -0.7402316217 0.394738301
O 1.1077986877 -0.7218520031 0.4189461242
C 0.5089706734 -0.6695143294 -0.7920624073
C -0.8006073023 -0.5153445349 -0.9388724754
C -1.7694808699 -0.3534028923 0.1928117381
C -2.4918896187 0.9719199748 0.1390451301
O -2.7416503218 1.6481990829 1.0968435134
H 2.8938034155 -1.6035197443 -0.1653832505
H 2.8524234435 -0.8152940661 1.4280610898
H 2.9197706489 0.1795303864 -0.043748105
H 0.7406931797 1.8725378934 0.7770800504
H 1.1673264845 -0.7742405799 -1.6511846141
H -1.182333301 -0.5058434695 -1.9528914018
H -2.5457211052 -1.1274255729 0.1297281667
H -1.2852818318 -0.4493374305 1.163638224
H -2.8044838437 1.2991994735 -0.8765896934
H 0.8378994049 2.6020914334 0.6579256097
