13
0
O 1.2936956352 -1.6401040568 -0.336093071
C 2.3759908498 -1.1186090414 0.2704245953
N 2.5123424023 -0.0118736404 0.8544903037
C -0.7760369646 0.9767984368 -0.5951385194
C -1.2011058041 0.452250016 0.5032324155
C -2.2389822898 0.6492542216 -0.5612767526
H 3.2125677762 -1.8109757263 0.2040779187
H 1.6589787292 0.5446517022 0.8511880621
H 0.0241872125 1.4048644492 -1.1745548374
H 0.5518702731 -1.0194645292 -0.2852305332
H -1.0162319464 0.1237772767 1.5118444823
H -2.9600089771 1.4566946308 -0.4529767935
H -2.6121248963 -0.2095257394 -1.1148122706
