13
0
O 1.6085825861 1.7270282926 1.1005845103
C 1.8595312171 0.9339029037 0.2366535967
C 0.9332202066 -0.1660856824 -0.2102441113
C -0.4642623454 0.0093446507 0.3235692655
C -1.5216644849 0.5551655091 -0.5591379383
N -1.4658540413 -0.9571632676 -0.1664340926
H 2.8388121806 0.9598163788 -0.2845324243
H 1.3954733047 -1.1083598756 0.1168055824
H 0.91284869 -0.1730617434 -1.3049815862
H -0.502917169 0.1026116959 1.4086345576
H -1.2105983121 -1.594462536 -0.9041066009
H -2.332262662 0.9632222024 0.0531770289
H -2.0700841703 -1.364176528 0.5321032122
