11
0
O 0.9128816962 0.7282811785 -0.4142284642
C -0.3724128932 0.2214446987 -0.4155093559
C -0.7233089194 -0.6498480622 0.498767864
C -0.5927589889 -1.504234994 1.633206189
O -1.8171807138 -1.3556855964 0.851206609
C 1.2491915752 1.5799839933 -1.3979427162
O 2.3303246256 2.064314944 -1.474772407
H -1.0556032047 0.5693572188 -1.1801640161
H -0.1079115928 -2.4689470694 1.5309865747
H -0.6441832967 -1.0851781762 2.632165345
H 0.4266937125 1.773567865 -2.1081366223
