11
0
C -1.2042602799 -0.0593349115 0.0244331469
N -0.557130693 1.2427684164 -0.0336118818
C 0.6955812704 1.1722769484 0.1726655233
C 1.4110716553 -0.0966760136 0.2664980598
N 0.8864790846 -1.1599862963 -0.2385492271
N -0.3787249849 -1.0333254041 -0.6441052098
H -0.7912680641 -1.899342374 -0.9419655284
H -1.3596674597 -0.3247043858 1.0859200474
H -2.1727921316 -0.0207407755 -0.4723251788
H 1.269872159 2.0973487122 0.1836006007
H 2.4475554439 -0.1528619165 0.5723106479
