15
0
C 1.4393114212 -0.4382485306 -1.225998912
C 1.0735359247 0.4207828154 -0.0222733933
C -1.4215309885 0.5560959689 0.3234740466
O -2.4653561924 1.1189988035 0.0592567044
N -0.2307620188 1.0390745754 -0.1277622987
C -1.3820963253 -0.6878788459 1.1834686514
H 1.4375649329 0.1554302042 -2.1421472973
H 2.4339533837 -0.8720243024 -1.1052592716
H 0.7234798731 -1.2521535585 -1.3559135549
H 1.1039791783 -0.1745596921 0.8906666245
H 1.8138191156 1.2135439847 0.110524064
H -0.3273216385 1.8445858722 -0.7249772743
H -0.838602704 -0.5019001617 2.1118767605
H -2.4065323416 -0.9608867653 1.420313005
H -0.8959426206 -1.5197533678 0.6707931459
