13
0
O 1.1798432589 2.017521434 0.7480689297
C 0.6777261464 0.9465883238 0.4696286002
C 1.3548384311 -0.3369699296 0.3199485095
O 0.5335982289 -1.2848377023 -0.0049246362
C -0.6875046577 -0.7735457483 -0.4016410331
C -1.5385986378 -0.5562203825 0.7432928078
C -0.7046111242 0.6321794207 0.0538853492
H 2.3985850803 -0.5886360581 0.443987581
H 1.2712691328 0.1869227704 -2.5425409003
H 0.614463223 -0.1717882588 -2.5235349237
H -1.2243884179 -0.912871149 1.7195747544
H -2.6014163162 -0.4018107385 0.6139969182
H -1.3248693475 1.4156610181 -0.3545559569
