14
0
O 2.134470816 1.1741750268 0.2691282051
C 1.6996087791 -0.1485524685 0.049170818
C 0.3238333031 -0.4070978374 0.6087351673
C -1.3171109016 -0.3714676133 -1.4154924887
C -1.9822701727 -0.0295316844 -0.1385613118
O -0.6055772579 0.4315593116 -0.1040069732
H 1.5730513083 1.7630307983 -0.2391740101
H 1.6998686873 -0.4060298423 -1.0161390192
H 2.4094737168 -0.8031523591 0.5580724839
H 0.0370179296 -1.449958446 0.4604414072
H 0.2627125003 -0.1255138171 1.6631646395
H -1.4543210674 0.4993802522 -2.0738755042
H -2.1650011246 -0.8244507572 0.5837859266
H -2.6551235163 0.8172034367 -0.0074903405
