17
0
C -2.412203883 -0.0080523587 0.3891518806
C -0.9212342279 -0.1998423066 0.1987351094
O -0.3976337139 -0.6016680327 1.4538385251
C -0.2542097879 1.0755104153 -0.307686493
C 1.2102899867 0.9518874491 -0.639800883
C 1.9400112676 -0.1141703676 -0.4872252915
C 2.6666337438 -1.1819006916 -0.3181221815
H -2.8643234302 -0.9303466618 0.7537348378
H -2.8938808307 0.2714055104 -0.5493972674
H -2.6003324864 0.7762688294 1.1255646478
H 0.5154850602 -0.8700215346 1.3251005796
H -0.7792309196 1.4212552157 -1.2044259262
H -0.3818105875 1.8589167037 0.4473185247
H 1.6956777579 1.8360600435 -1.0451585436
H -0.7527889304 -0.9963417655 -0.5404119745
H 3.2128719943 -1.3475916295 0.6043618251
H 2.7612539871 -1.9282058183 -1.0986283693
