15
0
O 0.8386533175 -2.7152291372 0.0149156231
C 0.5692460558 -1.5414997583 -0.1384662916
C -0.6971779957 -1.1080433165 -0.7641520019
C -0.9930222566 0.1789543242 -0.9267536733
C -0.0881229266 1.2798620558 -0.4933551642
C 1.1854224038 0.818282545 0.1267095417
C 1.4873677119 -0.4669861836 0.2905649679
H -1.3686571409 -1.8974384417 -1.0801807976
H -1.4772198459 -0.0106694581 2.0289051931
H -1.9320625613 0.4681890492 -1.3883351115
H -1.4704936068 0.3760744227 2.6663618838
H 0.1343128724 1.9308979071 -1.3480487878
H -0.6221670036 1.929469046 0.2122951325
H 1.8803789441 1.5861349532 0.4518451387
H 2.417059032 -0.7883480078 0.7446793469
