19
0
C 1.9392542637 0.664130291 1.4683083199
C 0.7006725869 0.692028881 2.354039019
C 0.2507096332 -1.0726182088 -1.0527815252
O 0.3699663723 -2.0870515739 -0.4189733648
C -0.9711103873 -0.1948292473 -0.941130658
C -1.6150929139 0.0105983675 -2.3066352276
O -1.879844671 -0.7373793518 -0.0282298911
H 2.2155740083 -0.3587387082 1.2054427974
H 1.7790856029 1.2154062065 0.5376651939
H 2.7970154751 1.1197359685 1.9665270062
H 0.8698951781 0.1459835207 3.2837970334
H 0.4241165975 1.7145907683 2.6183566735
H 1.0372872624 -0.7362191169 -1.7544379717
H -1.4767878492 -1.5445795406 0.319561
H -0.6070555624 0.7778722919 -0.5717862958
H -1.9563182661 -0.9430358962 -2.7124431721
H -2.4784476545 0.6664030482 -2.2019374439
H -0.9160102154 0.4693524958 -3.0092418931
H -0.1607324607 0.2355728042 1.8617064002
