10
0
O 1.6986905957 0.2473886868 1.3657536446
C 1.3417629178 -0.5261383562 0.4854361512
C 0.4649869457 -0.1857724678 -0.5938232189
C -0.9810274789 -0.397160396 -0.4609426949
N -0.4220096669 0.9481516793 -0.1861563716
H 1.7340447293 -1.5601408287 0.4546390655
H -0.5762479155 1.6953290087 -0.8449283102
H -1.6155755663 -0.4479593267 -1.3414647407
H -1.4245021173 -0.8452951761 0.426698126
H -0.3226874437 1.2371841766 0.784210349
