14
0
C -1.8251784932 -0.5518811353 0.7838705982
C -0.385697898 0.6636810001 -0.9284671797
N -0.5260840841 -0.4554041912 0.1300171907
C 0.3602264783 0.6637231711 0.4212949466
C 1.7221872344 0.3536707713 -0.161911941
C 0.9634333232 0.2106653508 -1.5051522947
O 1.3311176923 -0.086866434 -2.5998378341
H -2.2329468148 0.4520410948 0.8666928546
H -1.7193979277 -1.0082574683 1.7699397467
H -2.4891454255 -1.1462537894 0.1586663834
H -0.0778550375 -1.3533023225 -0.0141074287
H 0.1341536228 1.2428757161 1.3076789722
H 2.2985945805 -0.490258478 0.2272569594
H 2.3598547495 1.2383227143 -0.1928549736
