12
0
O -0.9427004057 2.6852837995 -1.0595844846
C -0.8304988543 2.7455317189 0.0569535838
C -1.2186317349 -0.9815719802 -0.4376588798
C -0.4793214235 -0.9400855932 0.6645515805
C 1.7086537452 -0.106929389 -0.1613132432
C 0.7977332574 -0.226016414 0.7972529168
H -2.1465608613 -1.5385166345 -0.4709333963
H -0.9283627443 -0.4487704627 -1.3365858204
H -0.8388428588 -1.4447934395 1.5573357841
H 1.5785487587 -0.5776331746 -1.1296146135
H 2.6223163328 0.4521296241 -0.0027402441
H 0.9944997885 0.2210089454 1.7682448168
