18
0
C 1.502642667 -0.4748445607 1.268302291
C 0.9769939549 0.0434021193 -0.0603804178
C 0.0846695376 1.2977447907 0.0529283169
C -0.9079364737 1.1223911089 -1.0639296752
C -0.8864312224 -0.1104978542 -1.552868438
C 0.1239354824 -0.9740908118 -0.848057323
H 0.6771692838 -0.7515478281 1.9298845516
H 2.1013357894 0.2811603474 1.7814929643
H 2.1301877449 -1.3583348615 1.1306507882
H 1.8290656068 0.3090829816 -0.6944389598
H 0.6580788647 2.2248772702 -0.0216149611
H -0.4342693363 1.3296561997 1.0197157516
H -2.4893568818 -0.4131932748 0.8914759574
H -1.5822170209 1.9065329551 -1.3867993021
H -1.5403758751 -0.4788991829 -2.3342184912
H -2.7530519737 -0.6953750424 1.5301787349
H -0.3825358484 -1.6759809057 -0.1729291356
H 0.7250127007 -1.5795954513 -1.5307246522
