16
0
C 2.505528676 -0.2594519877 -0.1741509539
C 1.0527565887 0.0591948386 -0.0610064082
C -0.0606776901 -0.6624400034 -0.316531047
C -1.1408688251 0.2864938183 0.0235594752
C -2.4632261013 0.0929893612 -0.0466388582
C -0.5680248554 1.5532381323 0.4761086425
N 0.7147097112 1.394134049 0.4165705929
H 3.0205011331 -0.2133560468 0.7910280893
H 2.5949294653 -1.2746432509 -0.554611157
H 3.029024648 0.408492229 -0.8660343937
H -1.3738054573 -3.0760504113 -0.7708150912
H -1.8686586052 -3.6331347961 -0.8673264121
H -3.1758822575 0.8641210962 0.2280291202
H -2.8493243387 -0.8598537893 -0.3893647256
H -1.0326711859 2.4719992789 0.8071472367
H 1.379112094 2.1120164822 0.67165289
