9
0
O 1.8510705853 1.0093890036 0.3590986571
C 1.0939144148 -0.0885249443 0.6597217443
C -0.0935040996 -0.3529868273 0.1655929576
C -1.2807510996 -0.1774743046 -0.6143205303
O -1.0552716293 -1.3124591158 0.2629663155
H 1.5718663622 -0.7517843072 1.3668085754
H 1.3791337415 1.5613313285 -0.2683794458
H -2.0578856739 0.5031310206 -0.2801702602
H -1.2790186014 -0.4200068537 -1.6727400135
