13
0
C 0.3332205003 0.5435205827 1.398907143
O 0.3296570776 -0.7623063439 1.457532442
C -0.0363089346 -1.4794169393 0.4283749745
C -0.497845277 -0.6889760091 -0.7374019549
O -1.3896348972 0.3570193247 -0.2224856149
C -0.1716200581 1.1005287019 0.1216221585
C 0.519519792 0.4155421091 -1.070148006
H 1.5846969437 0.1929892439 -1.0116419802
H 0.5472081194 1.0464495394 2.3262058521
H -0.1033968629 -2.5394943786 0.6033978028
H -0.950351173 -1.2842498461 -1.5277683559
H -0.3183792729 2.1785328925 0.1344792537
H 0.2605820428 0.9098181227 -2.0023527149
