13
0
C 1.3512055858 0.6817556909 0.2295545669
C 0.8364557315 -0.227514919 -0.8449744513
C 0.0920971825 -1.4462244453 -0.5472185808
N -3.1271024151 1.2819769125 1.9242296456
C -2.5022032593 0.9159741663 1.0376810114
O -0.5786743587 -0.2814838707 -1.0204937196
H 1.2877249627 1.7242568556 -0.0869997196
H 0.7784926669 0.5655031857 1.1508273117
H 2.3978080282 0.4565435757 0.4428457177
H 1.3735805174 -0.1943982186 -1.7901218055
H 0.1038362128 -2.2795620525 -1.2420898154
H -0.1084101199 -1.7013487211 0.4900064983
H -1.8953177348 0.5636668405 0.2151683406
