11
0
O 1.7049453784 -0.383497066 -0.7308562126
C 1.5900112063 0.5688236675 -0.003818086
N -1.3359883158 -0.8028142247 -0.1526645398
C -2.1501030015 -1.6330714637 -0.6369351479
C 0.8147140234 1.3959969411 0.8422743905
C 2.1018395058 1.7127507579 0.6603532636
H -0.3923504868 -0.9472282076 -0.5215933013
H -3.1977539989 -1.5957814561 -0.3326825713
H -1.8802818958 -2.4096769844 -1.3600706939
H -0.1162859935 1.6544705124 1.3237825594
H 2.8813905782 2.4161165236 0.9158413392
