14
0
C 1.5312461829 -0.1733982958 -0.2610917692
C 0.4670903647 -0.0827437128 0.8038936878
C -0.774033645 0.7278338138 0.647909644
O -1.0911382714 1.2472450234 -0.6330601015
C -0.8731188371 -0.8025893556 0.7902318291
O -1.0912312849 -1.2186796854 -0.8265155507
H 2.0410927786 -1.1368628355 -0.2052971436
H 1.1295482523 -0.0856748154 -1.2710722469
H 2.2819810538 0.6102110189 -0.1314362092
H 0.8766765188 -0.0813110022 1.8106873686
H -1.1647591588 1.3390745938 1.4541135999
H -0.4087187209 1.8620546629 -0.9094571344
H -1.894017048 -1.7382947023 -0.729628759
H -1.3086271848 -0.3455157076 -1.2377922147
