19
0
C -2.9274849084 0.9873588003 1.652119737
O 0.6772555187 -0.7366598981 2.006040702
C 0.104730955 -0.6494510518 0.953655776
C 0.3428944704 0.49132999 -0.0110553866
C 1.6963229693 0.3751552152 -0.7210392721
C 1.7140429342 -0.6932591473 -1.7925026015
O 1.3682425786 -1.9284041481 -1.1907820516
H -3.866197506 1.21812235 2.1532078059
H -2.2094598993 0.614565285 2.3812436664
H -3.1037596105 0.2283787012 0.8905152113
H -0.6384119694 -1.4116317859 0.6531358009
H 0.3274802652 1.4100003756 0.5798631378
H -2.5362113591 1.8897316124 1.1840996628
H -0.4696183031 0.540046174 -0.7412377324
H 2.4690196552 0.1637604701 0.0222647449
H 1.9471966474 1.3317871064 -1.1859612992
H 0.9958671953 -0.4371203639 -2.5835274764
H 2.7109836639 -0.7460415772 -2.2465036243
H 1.3406877025 -2.6133531077 -1.8593458009
