18
0
C -2.0089114632 0.3590287115 -1.9603662597
C -1.0088060713 -0.6476335606 1.39710812
N -0.0442903464 0.1618825035 1.1091194254
C 0.9718648585 0.961827666 1.7706988136
C 0.9041534154 0.6507312564 0.3213805685
C 1.7797268713 -0.1464777062 -0.5768001562
O 2.3898837636 -1.2691881614 0.0566325255
H -2.9535706954 0.384398814 -1.4191526706
H -1.7202039849 -0.6776053968 -2.1351889145
H -2.126021705 0.862340324 -2.9189052959
H -1.4489830988 -0.603595634 2.3812364988
H -1.4107064318 -1.2825935465 0.6201974077
H 0.672887109 1.9439238885 2.1253907885
H 1.5910822953 0.377909612 2.45507107
H -1.2381459783 0.8646397286 -1.3777716268
H 1.2068059044 -0.4623658109 -1.4560555256
H 2.6019500099 0.4760674498 -0.9258929682
H 1.7004485476 -1.8823201381 0.3205121993
