17
0
O 2.8563028162 -0.6095783419 0.3706099577
C 1.4774140983 -0.816885736 0.5550758628
C 0.6966330633 -0.4239660267 -0.6915721048
C -0.8155202264 -0.6472321644 -0.5748090044
C -1.4586552054 0.2298929676 0.4581572107
C -2.1508662835 1.3257134368 0.1773393005
O 0.9984770017 0.9211619056 -1.0324781862
H 2.9474662494 0.2500006466 -0.0531210497
H 1.1112581765 -0.2451264936 1.4206448644
H 1.3338355736 -1.8787340722 0.7700901679
H 1.0751771556 -1.0201050769 -1.5260955703
H -0.9967013023 -1.700622895 -0.3425392159
H -1.2593892114 -0.4466478624 -1.5523894381
H 0.4512994262 1.4948590404 -0.4847037356
H -1.3173932834 -0.0465168574 1.4999156611
H -2.5802479898 1.9416606005 0.958121224
H -2.3291080588 1.6332519288 -0.8484569443
