13
0
C 0.1661892937 1.3206371303 0.2531438593
C 1.0423101621 0.2258810971 -0.3248403909
C 0.3156852519 -1.0506513279 -0.1326738755
C -0.9907974879 -0.7129544617 0.5593931647
C -1.1503455168 0.7636770448 0.6706465683
N 0.4961081018 -0.4946280749 -1.467552003
H 0.0355333165 2.1999077861 -0.3873502103
H 0.5724126135 1.7395972929 1.1879957636
H 2.1227273918 0.3053064716 -0.2955688611
H 0.8129106699 -1.9961512268 0.0493157616
H -1.0156282641 -1.0517313415 1.607770217
H -1.8836942746 -1.1709740388 0.1196088489
H -0.3553832576 -0.0618413511 -1.8110428424
