10
0
C 2.3535289613 -0.790846786 -0.3056057366
C 1.227727489 -0.3943058007 -0.1951297114
C -0.0913781956 0.1281734702 -0.0668905822
C -0.3438796172 1.5846809807 -0.0829957571
O -1.4252432289 2.0919920502 0.0583591403
N -2.1082700083 -1.3799263809 0.0984172288
C -1.1392572835 -0.679408346 0.082284085
H 3.3505120818 -1.1496496705 -0.4060343874
H 0.570510175 2.1870286394 -0.2392810372
H -2.5246763736 -1.7072971563 0.9617777577
