16
0
C -0.8487529752 0.2104320455 -1.8201963982
C 0.2182536999 0.1000059719 -0.7727977012
C 1.2514887321 -0.725930304 -0.8785223133
C 0.022778788 0.9499461712 0.4725582262
C -0.6729566018 0.0529676569 1.4609839575
O -1.9662394058 0.1804108269 1.2759843807
H -0.6828978321 -0.4982953502 -2.6313920216
H -1.8361199093 0.0235325996 -1.3898075717
H -0.8724409824 1.2197346233 -2.2401393279
H 2.0004418749 -0.7999563203 -0.0993199855
H 1.3788326498 -1.3560675307 -1.7511796402
H 2.3809484897 -1.0664598712 2.8343379978
H 0.9884994601 1.2419387062 0.8826635353
H -0.5674626692 1.8421736403 0.2367316323
H 1.6622521489 -0.9442482757 2.66525949
H -2.4154014677 -0.4278525895 1.8726277399
