15
0
C 1.7563297683 -0.5160298441 -1.4770313302
C 1.6082263564 0.192806181 -0.1898920712
C 0.2781190791 0.5226132355 0.1926419856
C 0.2056673134 1.730919995 0.7881860284
C -0.9502563475 -0.2285670503 -0.2026683012
C -1.7685586615 -0.8957978376 0.8122453906
O -2.1948980703 0.3089657002 0.2041065487
H 2.7524845235 -0.4109257029 -1.9055562074
H 1.6771262251 -1.5723061567 -1.1635127798
H 0.9911524415 -0.3485525238 -2.2450278289
H 1.1131075878 2.1914671712 1.1541624305
H -0.7307962591 2.2749263085 0.8447330674
H -0.9562214757 -0.6501564678 -1.2045013882
H -2.3411714475 -1.7795225685 0.5465979661
H -1.4768020336 -0.8085354398 1.8551324897
