16
0
C 2.1129492078 -1.3151955138 -1.2919822426
C -0.3187889512 0.4048768441 1.0697205862
C -0.6576459068 1.8439275864 1.2373650963
C -0.8435881726 1.1817928225 -0.0826327663
C -1.5704354191 -0.0229191524 0.3742706118
O -1.4973381129 -1.1130764917 -0.4895961098
H 2.4384651818 -1.9288720729 -0.4523396712
H 2.534267202 -1.7148284598 -2.2133755957
H 2.4618460202 -0.2928565495 -1.1488870834
H 0.6138943441 -0.1222713817 1.1787289851
H -1.529101503 2.1294394262 1.825813567
H 0.1775404299 2.530716344 1.316404756
H -0.4080970663 1.3819024898 -1.0468836647
H 1.0250601437 -1.322151204 -1.3490770449
H -2.5341361924 0.0832758197 0.8796379113
H -1.6775912053 -1.9112485069 0.0094386648
