15
0
C -1.0099594607 0.4710385034 -1.2874802552
C -0.4802683095 -0.5674221336 -0.3027055858
C -1.5748205406 -1.1460223623 0.598496055
C 0.7061910381 -0.2235848522 0.5356786283
O 1.2460758953 0.8992873959 0.0495362005
C 2.3437615881 1.3411814179 0.6278731589
C 3.3363068662 1.8125048371 1.0877813143
H -1.3807501398 1.3524557718 -0.7598939396
H -1.8391200849 0.0537360677 -1.8609221151
H -0.2438509659 0.7998828048 -1.9890392527
H -0.0528261063 -1.4192481486 -0.863632876
H -1.1645618666 -1.8866515544 1.2843807967
H -2.0380703336 -0.3555462507 1.1929001173
H -2.3558953446 -1.6143264607 -0.0021821109
H 4.2220377645 2.2159999639 1.5153458641
