17
0
C -1.8646871109 1.2518353165 0.0735666133
C -1.5489900719 -0.2210667255 0.0547685903
C -1.0775869446 -0.8965691834 -1.1945620785
C -0.1338231833 -0.7403495151 -0.029525047
C 1.0260780908 0.1770826474 -0.12344153
C 2.1682741606 -0.0280929346 0.4679680053
C 3.3088524022 -0.2411384482 1.0554363601
H -2.9077253137 1.4233744709 -0.2005842347
H -1.7032079136 1.6783142962 1.066103534
H -1.2479361891 1.8109576425 -0.6316848301
H -2.1963640635 -0.8175031184 0.6888203875
H -1.4376467183 -1.8889646847 -1.4317971969
H -0.8974335622 -0.267857878 -2.0589367683
H 0.0685646827 -1.6374449537 0.5426241389
H 0.925191182 1.0732793388 -0.7296158576
H 4.100068301 -0.7942197792 0.5613916748
H 3.503470252 0.1298755084 2.0556282388
