10
0
N 1.8967721464 0.0164948062 -0.1999489513
C 0.7933872861 -0.3704989458 0.5144917139
O 0.8404805975 -0.9784269027 1.5449465591
N -0.4096949565 -0.0116848679 -0.1399806532
C -1.6142969945 -0.1160284465 0.4369677916
O -2.499277449 0.2874149161 -0.4754151595
H 2.7736742658 -0.1178413869 0.2716182466
H 1.845331661 0.786739172 -0.8418918223
H -0.3466324857 0.3183892729 -1.0991607449
H -3.3677920711 0.2224163827 -0.07347298
