10
0
O 2.3272830798 0.6771095616 -0.4863163046
C 0.0542254726 0.1620561373 -0.2566010438
N 0.1130004513 -1.2559978339 -0.343362413
N -1.232337419 -1.1977900376 -0.1840064639
C -1.3909613914 0.1193692527 -0.0911151183
C 1.0571898481 1.0401575981 -0.3198109775
H 2.3595973451 -0.2876303898 -0.5454266184
H -1.8492021063 -1.9953803223 -0.1572403331
H -2.2689011069 0.7254046072 0.0419645315
H 0.9157218267 2.1105234266 -0.2404202589
