9
0
N -0.7585497209 -0.6558763864 0.0952497909
C -0.6780283143 0.6922076049 0.0348595112
C 0.6413821052 1.0431054498 -0.0116502331
C 1.4583141649 -0.1394813686 -0.0248299093
N 0.5411479646 -1.1032119958 -0.0112587791
H -1.5319136713 -1.2235453283 -0.2072020375
H -1.581793714 1.2823720275 0.0419109691
H 1.0171618006 2.0535431534 -0.0210454296
H 0.7067223853 -2.0903611564 0.0792761171
