14
0
O 1.073124823 0.2340791476 -1.8255966561
C 1.5796103535 0.7391252352 -0.6762534796
C 1.2934215821 0.3345845485 0.5568160717
C 0.3904914261 -0.8231663707 0.8841308154
C -1.0555986814 -0.7027392947 0.4726642471
C -1.6412696549 0.3629872278 -0.0537026467
H 2.2814623664 1.5407888081 -0.8722122283
H 1.7784051545 0.859559541 1.3690871511
H 0.7892260229 -1.7404164497 0.4304917372
H 0.4189349541 -1.0140081135 1.9604143329
H 0.3135800201 -0.3242920239 -1.62527071
H -1.6508382544 -1.59772382 0.6392162988
H -2.6932640758 0.3505684984 -0.3106330306
H -1.095841036 1.284101066 -0.2281299029
