11
0
O 2.2691787806 -0.5192719074 0.1016852836
C 1.028268599 -0.0923962288 0.0603241218
N 0.0553926998 -0.9763156832 -0.0931818254
C -1.2012514633 -0.2599620393 -0.1069696394
C -0.7104290324 1.1565303252 0.0669184809
C 0.6354908116 1.2873765441 0.1706426577
H 0.1744869544 -1.9701755915 -0.1830927004
H -1.8508770074 -0.5908463564 0.7092959328
H -1.7301808942 -0.4147307849 -1.052542078
H -1.435982689 1.9636124178 0.0998741328
H 2.799091241 0.2837713043 0.2168536337
