9
0
O -1.4323254869 0.0834475754 -0.7337912074
C -0.2284727524 0.2004347573 -0.1777219488
N 0.7125533181 -0.6225522029 -0.2263347472
C 1.7531259259 -1.2838190606 -0.4427483322
N -0.8571080163 2.2968653647 0.74777797
N -0.0375706671 1.4362280361 0.5797286579
H -1.4440783186 -0.683512157 -1.3134716017
H 1.8869848306 -2.0705187217 0.3177761252
H 0.9366921668 1.4608094086 0.9518580843
