12
0
C -1.8238126107 -0.3787383198 0.0313974123
C -0.3527185696 -0.1524562257 -0.0040370516
C 0.3229827318 1.1671802201 -0.009589882
N 1.5882080475 1.0305663534 -0.0430168665
C 1.8008591025 -0.4015435465 -0.060721158
N 0.5265830834 -1.0781316994 -0.034507607
H -2.2580797904 0.0607016588 0.9321930192
H -2.0389560952 -1.4452538989 0.0167625886
H -2.3059241834 0.0949881902 -0.8266248509
H -0.1623118758 2.1380053728 0.0109591583
H 2.3598662769 -0.6823382174 -0.9582456709
H 2.4042028832 -0.6969728876 0.8027549085
