14
0
C -0.694716265 -1.7427058602 -0.1245107002
C -0.4666584957 -0.2822651989 -0.3804340778
C -1.4934210403 2.7877439274 1.0482869572
O -2.147395133 2.8463648276 1.9577716494
C 0.7444052773 0.2848728944 -0.4455028791
O 0.9590976768 1.6113912398 -0.6396313583
N 1.9531741965 -0.3780226036 -0.3823797305
H 0.0152483088 -2.1497832206 0.6032920498
H -1.6897259497 -1.9104867801 0.2902020385
H -0.6185323421 -2.3531039235 -1.0310038566
H -1.3259565074 0.3421033407 -0.5931816507
H 0.132477283 2.0813021955 -0.4908006039
H 1.9080250113 -1.3311335511 -0.0673587159
H 2.6968129794 0.1558697126 0.036139878
