15
0
C -1.4905752807 -0.8871546836 0.1162165653
C -0.2287677208 -0.0940326865 -0.0962089803
C 0.8209292135 -0.8521452811 -0.8938299497
O 2.16682422 -0.0609724672 -0.4353357752
C -0.3141648306 1.3906048721 -0.0136247782
N 0.3586269749 0.6229680657 1.0454236458
H -2.2441349246 -0.3184755046 0.6678820179
H -1.9169309789 -1.1624012129 -0.850574772
H -1.2636397443 -1.8115067047 0.6480784807
H 2.7422042389 -0.7968436821 -0.2169699009
H 0.7582628364 -0.5224346952 -1.9389089765
H 1.7778459568 0.318542086 0.4462364588
H -1.260732139 1.8537347516 0.2430332843
H 0.3470653826 2.0076796996 -0.612103749
H -0.1659312042 0.556879443 1.9058574291
