21
0
C -2.864863428 0.3508746715 0.9597955706
C -2.0025464437 0.0234994932 -0.2520228517
C -0.5673406493 -0.3238033426 0.1236989723
C 0.3132033982 -0.6257443825 -1.089899193
C 1.7033517886 -1.0346968159 -0.7137953506
C 2.8160019256 -0.4171939824 -1.0890024005
O 2.2057046459 1.387261997 1.7123961924
H -3.8873614177 0.5982207651 0.6689521259
H -2.4589690781 1.2032977571 1.5094267727
H -2.9118447011 -0.4959426309 1.6491517884
H -2.4455252276 -0.8112870879 -0.8057540621
H -1.9973956938 0.8767787826 -0.938255885
H -0.1263419473 0.5035539819 0.6888504859
H -0.5688879951 -1.1914578009 0.7944603164
H 0.3527435931 0.248688304 -1.7461029828
H -0.1466511478 -1.4351488722 -1.6691148666
H 2.3337822134 0.8304925487 0.9367482374
H 1.7830589129 -1.9153753895 -0.0777615911
H 3.7930519439 -0.7723432007 -0.7835178629
H 2.7882646974 0.4612080101 -1.7261669651
H 2.0524856106 0.7740941944 2.4326245493
