12
0
O -1.3383482864 1.3965439205 -1.2315361388
C -1.6350722014 1.1344848241 -0.1429990276
C -1.9808277115 0.8241223958 1.0772015419
C 0.7143053774 -1.4875592732 -0.9852281117
N 1.5884441965 -1.2569298936 -0.1091471659
C 1.9669819791 0.0365451146 0.2303337909
O 1.2717432964 0.8209132725 0.8172462677
H -1.1988461701 0.7083690641 1.8116041899
H -3.025612148 0.7080653152 1.3189120653
H 0.2295445171 -0.6994679077 -1.5669652021
H 0.4231743407 -2.5176328266 -1.1802718182
H 3.0198928103 0.2491709944 -0.0207243915
