19
0
C -2.3192643901 -0.5986979453 -0.7444858054
C -1.5292026709 0.3205139057 0.188506686
C -1.0665618968 -0.4205730287 1.4349173196
C 2.1314358009 0.8031889276 0.0589232446
C 3.0570440247 -0.2777383876 -0.4231391463
C 0.8705981305 0.8899681413 -0.2545921057
C -0.3911366124 0.96784098 -0.5673856937
H -1.697373871 -1.4353151354 -1.0730539668
H -3.1970800248 -1.0067486738 -0.2387936721
H -2.66173304 -0.0668125531 -1.6347239009
H -2.2009671624 1.1300525359 0.5004449007
H -0.5333241039 0.2421611291 2.1182489132
H -1.9200397642 -0.8468544203 1.9656912901
H 2.5494214464 1.5624865209 0.7158264235
H 2.5338671529 -0.978211624 -1.0732154796
H 3.4744124718 -0.833376022 0.4201673065
H 3.8966685422 0.148553183 -0.9774440219
H -0.3892097265 -1.236928673 1.1714903602
H -0.6641563061 1.5351091398 -1.4553376518
