13
0
C -1.9317289809 -0.0017201801 -0.0716108737
C -0.4442262657 0.0151590038 -0.074359969
C 0.4273336206 -0.1607162126 -1.0830507266
C 1.7746997761 -0.0984614713 -0.5283144452
O 2.8626394073 -0.0938594923 -1.0581062086
N 1.5797126481 -0.0085115954 0.8593378574
N 0.2269523233 0.2466102719 1.1171891442
H -2.3271963204 0.9290169144 0.3382971965
H -2.3114232791 -0.8254964194 0.5379320081
H -2.310177506 -0.1278462433 -1.0837970738
H 0.2031075867 -0.2814322147 -2.1294704362
H 2.2248038526 0.5776959223 1.366754757
H -0.117771863 -0.2776142831 1.9113267698
