12
0
O -0.836967135 -0.3093083642 1.5701784461
C -0.5601509428 -0.233943039 0.2767928692
C 0.4618619759 -1.1914944797 -0.2595095279
C 1.3507961489 0.0136542396 -0.3707847869
C 0.659324296 1.1927643478 -0.3628774894
C -0.8795177784 0.8844551101 -0.5418118134
H 0.169317802 -1.6944117003 -1.1848590532
H 0.7606317887 -1.9270439483 0.4861308975
H 2.4343099099 -0.0292337767 -0.3068745185
H -1.3597227436 0.4511147452 1.8444575269
H -1.5352779664 1.6398948813 -0.1168150342
H -1.1128183553 0.674899984 -1.581915516
