16
0
C 2.622870209 -0.4201663097 -0.8262745268
C 1.8153030322 0.4784157931 -0.0167592634
N 1.1642066567 1.1818620501 0.6135426606
O -0.4773151169 -1.2212997733 -1.5385357065
C -1.1980850694 -0.5146791881 -0.8993499802
C -1.9149104221 -0.29109934 0.3526043665
C -1.9708374983 0.7226503284 -0.8342027019
H 3.2335569866 -1.0512136169 -0.1817922771
H 1.9608768237 -1.0452684252 -1.4255647118
H 3.2724905776 0.1578750223 -1.4823065536
H 0.233312496 0.8345005283 3.1914551222
H -0.0690149908 0.5540716527 3.8134541635
H -2.8020814116 -0.8797852151 0.5554011343
H -1.3407079997 0.0055085817 1.2223148794
H -2.8938569275 0.7892877081 -1.3983489576
H -1.4305143455 1.6535692037 -0.7084806472
