11
0
C -1.3791733618 0.315765585 -0.7271249537
C -0.4166027359 -0.3732348856 -1.3178865094
O 0.9314211226 -0.2845014314 -1.0922801194
C 1.41105776 0.2434364211 0.0649516247
N 0.8721865225 0.0727314039 1.1878140266
C 0.1339724884 0.0393902278 2.1814378425
H -1.2073805119 1.0400974626 0.0562600571
H -2.3974088075 0.1421992721 -1.0451051331
H -0.603253322 -1.0947993918 -2.1026220303
H 2.3644846754 0.7409336562 -0.0393948975
H 0.3206001702 -0.8391053199 2.8148200926
