19
0
C 2.4573215619 1.3205206689 -0.4156550587
C 1.4187998418 0.5153264063 -0.5680125491
O 0.6757510386 0.0840244105 0.4827982116
C -0.2925101418 -0.8774736942 0.1720274683
C -1.4950950891 -0.895744241 1.0449090857
C -1.6162745243 -0.4395953203 -0.3866800357
C -1.8876129167 1.0095411353 -0.6969303914
H 2.4348395595 -1.5549347568 1.5329830023
H 2.7662565292 1.663755218 0.563098593
H 3.0104977732 1.6488786331 -1.2830481117
H 2.8052037599 -2.2005642291 1.5815154903
H 1.093324365 0.1567698876 -1.5415859879
H 0.1265801754 -1.822439497 -0.1611922879
H -1.5371815307 -0.1229036584 1.802254145
H -1.9062802233 -1.8509723787 1.341930366
H -2.0747982753 -1.1469978033 -1.0694995904
H -1.5984533243 1.2559789022 -1.7209254411
H -2.9498438715 1.235134142 -0.5847053955
H -1.3300567073 1.6653671747 -0.0274445127
