19
0
C -2.8352198219 -0.8221723924 0.2403234606
C -1.4300168392 -0.4360364084 -0.2060687123
C -0.7995353191 0.5688202849 0.7160847348
C 2.4283131969 -0.8103516767 -0.5088469259
C 3.3774208817 0.0955450496 -0.6702911538
C 0.0721224952 1.6333665443 0.2364745162
O -1.2685424913 1.9068781423 0.6137908806
H -3.2850507638 -1.540932845 -0.4462239078
H -2.8230282208 -1.2741110613 1.2350844179
H -3.4785992721 0.0583639272 0.2797271216
H -0.7883238255 -1.3221798423 -0.2461147186
H -1.4565129582 -0.0145067797 -1.2144746483
H -0.6667998332 0.2374723634 1.7464281048
H 1.9352285396 -1.2745618982 -1.3555379969
H 2.1037941865 -1.1248585121 0.476744405
H 3.8699991566 0.5595194879 0.1766779267
H 0.8350838826 2.0466168302 0.889862489
H 3.701685081 0.4109275698 -1.6554335591
H 0.2818489255 1.7074102165 -0.8270884346
