12
0
C -1.5579053053 1.0742882647 0.5455862167
C -0.2954598198 0.4666126003 0.2765567744
O -0.2373995804 1.5573937534 1.0404422198
N 0.4285711775 -0.4076829406 -0.244504071
C 1.8129880116 -0.3131869675 -0.0187134408
N 2.5853867836 -1.1757334772 -0.5145807748
H -2.4407737362 -1.6974643536 -1.5179170888
H -2.1997915297 0.6779163289 1.323657811
H -2.0165603034 1.7264002384 -0.1885578881
H -1.7132622248 -1.598047807 -1.3798944971
H 2.1507022441 0.5324345269 0.593512866
H 3.5476772828 -0.9664321666 -0.2620441273
