14
0
C -2.3097099479 -0.7649538369 0.0923406213
C 0.4104205777 -0.0579598429 -0.0522808125
C 1.8369709446 0.3526691611 -0.1797286076
O 2.1972494252 1.1317133072 0.9539037177
C -0.5094239956 0.3519689497 -0.920270787
O -1.8225841017 0.0605459739 -0.9421670085
H -2.161404586 -0.2974788638 1.0707662366
H -1.8139514894 -1.7409840241 0.0818677198
H -3.3738126497 -0.8958123003 -0.0913321521
H 0.1598291222 -0.6910868437 0.7900069361
H 2.4766129126 -0.5377886889 -0.238524184
H 1.976318615 0.923143331 -1.1072702916
H 3.1491195497 1.2443085884 0.9557060434
H -0.2540763767 1.0027870894 -1.7502224314
