10
0
C 2.120767069 0.6277113425 -0.4562346594
C 0.8919811497 0.3595064847 -0.1767748729
C -0.3725803896 0.1459504553 0.1196349165
C -1.377945086 1.1306871039 0.5290355714
N -2.4912105671 0.3372155492 0.6989337183
N -2.2527629914 -0.9278782308 0.4471154752
N -1.0171001763 -1.0936341175 0.1017345092
H 2.878608372 0.6141963209 0.3186694118
H 2.4128683692 0.8815992532 -1.4688789684
H -0.6754377497 -2.0119841615 -0.1273291017
