11
0
O -0.719732382 0.53855024 -0.9707348101
C -0.7100176027 0.1873282744 0.4032892224
C -0.2597635503 -1.2504848723 0.5160834485
C 2.05987193 1.7927583075 -1.0775678271
O 2.7465820318 0.9191734151 -1.243109131
H -0.9488074608 1.4655167514 -1.0531826088
H -0.9304775003 -1.9029262079 -0.0446912727
H -1.7115147309 0.3049333623 0.836307212
H 0.7469532879 -1.3681502805 0.1119821245
H -0.2551428642 -1.569877245 1.5597196145
H -0.0290561584 0.8413112548 0.9640710279
