11
0
O -2.1379501803 -1.6996589588 0.1850973094
C -1.9562360206 -0.5051584154 0.0703959802
C -0.6396535076 0.0898254153 -0.0019153949
C -0.2565390759 1.4143171206 -0.1264297526
N 1.1326317264 1.2674973411 -0.1299446228
C 1.5495944432 0.0010322131 -0.0205600587
N 0.473401885 -0.7468958635 0.0599157213
H -2.7921459641 0.2120462721 0.011823236
H 1.764411123 2.0455444397 -0.2083264353
H 2.5681707582 -0.3514312226 -0.0014159471
H 0.4300098129 -1.7499753418 0.1513709645
