18
0
C 2.5341180795 -0.293621104 -0.0916540735
N 1.4166998 0.6080116081 -0.2812840208
C 0.1772677868 0.172998515 0.2736429801
O 0.0657987174 0.4120354603 1.6443016264
C -1.0667791935 0.354553373 -0.5214963228
C -0.5368677524 -1.0437268788 -0.2629379337
C -2.3450402611 0.8220652032 0.1194357478
H 3.4190486264 0.1156276619 -0.5792982649
H 2.3591205382 -1.3086742026 -0.4787911544
H 2.7657870544 -0.3747037757 0.9729461628
H 1.3107106924 0.8853722889 -1.2440420976
H -0.9110173426 0.7205846167 -1.5323354471
H -0.0842733284 -1.581733466 -1.0867715352
H -1.0964693908 -1.656377093 0.4341798847
H 0.46407487 -0.3208578773 2.1165545499
H -3.2117568099 0.4473326081 -0.4290623452
H -2.4115212016 0.4739240246 1.1498859468
H -2.3973368849 1.9123750378 0.1352052966
