23
0
C 2.4709631394 -0.3304402555 -0.8637522629
C 1.6123253946 -0.0365831647 0.3556835398
C 0.3030771995 -0.8439358001 0.4287775302
C -0.3473150871 -0.735595918 1.8122300896
C -0.509802356 -0.7581171641 -0.7959616357
C -1.0852370198 2.4805995521 -0.6585829558
C -1.9394318905 -1.0842010169 -0.6574514793
H 2.7809996927 -1.379123822 -0.8807796133
H 3.3746973195 0.281885063 -0.8575182195
H 1.920064262 -0.1363141754 -1.7830780573
H 2.1860814285 -0.2315188298 1.2668447743
H 1.3550613843 1.0273234031 0.3834494861
H 0.5910672702 -1.9076430716 0.2535097294
H 0.3897694244 -0.9181547597 2.5959045079
H -0.7510262914 0.2677909963 1.9700814302
H -1.1584009811 -1.4503216037 1.951934351
H -0.6410385766 1.681113775 -1.2548599038
H -1.91109943 2.9274172628 -1.2101802861
H -1.460868134 2.0757105315 0.2813029974
H -0.3332398883 3.2399002302 -0.4489011954
H -2.5288791472 -0.689560257 -1.4856180382
H -1.9436537679 -2.1779599722 -0.8006742679
H -2.431908945 -0.8793100032 0.3003684792
