10
0
O 1.4160733252 1.6492396822 -0.3779370815
C 0.5593737967 0.6384521095 -0.0852461139
C 0.4952625989 -0.1120201728 1.0358619441
N -0.642199255 -0.9911787927 0.6674957249
N -1.1991526992 -0.7179403604 -0.6620560933
C -0.4485628583 0.2498314348 -1.0493966338
H 2.0018305843 1.7487244282 0.3778445832
H -0.3558034216 -1.9690780697 0.682495783
H -1.4005975203 -0.8932440834 1.3409407274
H -0.6093875507 0.6904888244 -2.02592884
