17
0
C 2.5939731527 0.1728705866 -0.2236491608
O 1.2200448511 0.2850072411 0.0430269163
C 0.5100075295 -0.8872353265 -0.2789997835
C -0.9202617067 -0.6800788467 -0.0057733751
C -2.2843537817 -1.3607956343 0.0169422416
C -1.9311750427 0.0281273984 0.3532140095
O -2.4819127136 1.1648255708 0.7659414325
H 3.0500799073 -0.6395804047 0.3565189807
H 3.059415396 1.1152367462 0.0613873125
H 2.7819727698 -0.0113982229 -1.2892869564
H 0.6600157967 -1.1449387304 -1.339253752
H 0.8856577089 -1.7370910825 0.3116012568
H 0.1683384527 2.4884891287 0.1795805031
H -2.7918577556 -1.5813602449 -0.9250264057
H -2.5193801458 -2.0707456433 0.8134370913
H -0.1727680801 3.1546339584 0.2130052587
H -1.7905453384 1.8345005062 0.8166354304
