14
0
O 0.2038330613 -0.4273247429 -1.4104516582
C 1.1772098823 0.2443046793 -0.6264883065
C 0.5826866929 0.9770533141 0.5643491913
C -0.7302158585 1.6921434853 0.4788239971
C -0.7421615746 0.5784037982 1.1290332029
O -0.7334025086 -2.4535213957 0.3751597073
H -0.4234392892 -1.8678103046 -0.3327151507
H 1.7496205398 0.9398671086 -1.25303898
H 1.8645229187 -0.5286104626 -0.2760992305
H 1.3525176552 1.3604962938 1.2364771657
H -0.546920903 0.1620514615 -1.5287730514
H -1.2600583558 2.560844558 0.1270419244
H -1.2685012082 -0.1800466994 1.682053426
H -0.6762760524 -3.3412270935 0.0218707626
