17
0
C -1.7908889761 0.1755000129 0.0910986669
C -1.4762736738 1.618553616 -0.1438501707
C -0.6194136695 2.3326446581 0.5714560529
C 1.4345099177 -1.4769143159 -0.0904341383
C 1.8976548801 -0.1575171059 -0.3889126387
O 1.5743878309 -0.6415764601 0.9554883885
C 1.0605367108 -2.7113838675 -0.3356934305
H -1.2295691503 -0.2205866871 0.9379755541
H -2.8576486039 0.0364199467 0.2845274387
H -1.5483932324 -0.4285955304 -0.7876620855
H -1.9998816028 2.099272424 -0.9675183657
H -0.4334254551 3.3780386943 0.3559363269
H -0.0764177882 1.8924199171 1.4020934707
H 2.9548005816 0.0222852567 -0.5535401695
H 1.2078556247 0.5912092236 -0.7647184162
H 0.748138111 -3.3643385916 0.4673513091
H 1.0675994953 -3.082579191 -1.3495397928
