12
0
C 0.9969708994 -0.284615684 0.626820918
C 0.5897573195 -0.8470207911 -0.6340936776
C -0.4005260246 -0.8629399704 0.5147942672
C -1.3751195199 0.2673158758 0.325041054
C -0.7013000299 1.2162430167 -0.3161115933
C 0.6834818275 0.6623361499 -0.5161404205
H 1.8372619005 -0.4390921265 1.2853789024
H 1.0032954307 -1.5902599212 -1.2977285634
H -0.6492132375 -1.7926832156 1.0094096968
H -2.4034026054 0.2717753817 0.6546011699
H -1.0432508952 2.1871709026 -0.6419251903
H 1.4793759347 1.2004993821 -1.0138815633
