15
0
O -2.4807391234 0.1042023048 -0.7442518595
C -2.0526167379 -0.0780642347 0.5965207398
C -0.7241747778 0.3571306386 1.0435647222
C 1.7710873696 -0.6783568383 0.0833411519
O 2.8033741146 -0.022174181 -0.571368752
C 0.0744249911 1.0207225327 -0.0193393866
O 0.5028872008 -0.2986006445 -0.423165572
H -1.9536472971 -0.4742025516 -1.2999959727
H -2.6988593471 0.5518604755 1.2306788943
H -2.2435650029 -1.1027429616 0.9375257074
H 1.844546339 -0.4202135113 1.1398773934
H 1.8107212917 -1.7621398306 -0.0531826261
H 2.8413526189 -0.3254661943 -1.4814859107
H 0.9143173754 1.6279527292 0.316304333
H -0.436547015 1.491317267 -0.8607848623
