8
0
O 2.0524807034 0.7551371187 0.4129153923
C 0.9174442767 0.4218970089 0.2469872648
N 0.4539075594 -0.9061171805 0.2930001733
O -0.8720791805 -0.9051752564 -0.1377732387
C -1.1607792217 0.3998057959 -0.2138201061
N -0.2197570715 1.2239918257 0.0072442397
H 0.9759599276 -1.6374031611 -0.1672116711
H -2.1924189933 0.6236378487 -0.4517330542
