8
0
O -1.2366243075 0.9293125266 -0.2493811687
C -0.6330326742 -0.696861183 -0.3840460249
C 0.598283188 -0.5992858959 0.2910785379
C 1.6977086086 -0.4925161429 0.7883922539
H -0.5990934417 1.4149469702 0.2928311526
H -1.4120906343 -1.1684467466 0.2127834338
H -1.1322393734 1.2266078669 -1.158906822
H 2.6763176346 -0.4235663953 1.1998556373
