13
0
C -0.9751669611 0.9309103339 0.2130999003
C -0.8805972234 -0.5252668313 -0.1216833306
C -0.1661714955 0.4988832248 -0.9595113609
N 1.1371760531 -0.1089882684 -0.6672036825
C 1.3763222468 -0.5678903543 1.2658107657
C 0.507581021 -1.1214558078 0.2468198948
H -0.5157646964 1.3515690902 1.0986882029
H -1.9230667933 1.3828774292 -0.0517183308
H -1.7363878311 -1.1247819047 -0.3920569505
H -0.3551853361 0.8233868932 -1.9738974509
H 0.8560239148 0.2614786061 1.7675537572
H 1.9781752543 0.404378761 -0.4122792465
H 0.6622298469 -2.151638172 -0.0687011683
