13
0
C -0.839813973 0.5175905825 1.9586225871
C -0.0327401421 -1.4604587485 -1.7296738265
C 1.0807645278 -0.5532714893 -1.8834856907
N 0.5617928554 -1.2876090145 -0.6509130823
C -0.0338186414 1.2176415512 0.9102761402
O -0.4978050104 1.8342320312 -0.0120489384
H -0.5977077417 -0.5474235403 1.9221967639
H -1.9049907603 0.6693397529 1.7938426718
H -0.5529178895 0.8827226733 2.9480304189
H -0.8836845882 -2.0027827279 -2.1165795817
H 2.0221761175 -0.907094447 -2.2908687042
H 0.9106115163 0.5182709135 -1.9084811869
H 1.0656977296 1.132117463 1.026134429
