19
0
C 2.6533678573 1.054061584 0.0168488862
C 2.6124645928 -0.0754195042 0.7057959905
O 0.4467630372 -1.2485391227 -1.5467475359
C -0.897846384 -0.8352200371 -1.4351570076
C -1.3517863635 -0.6826950352 -0.0097403239
C -2.5081227362 0.2149927588 0.3043297316
C -1.1196072167 0.6182571595 0.7029314299
H 3.3812396577 1.2152062323 -0.7700992174
H 0.9987322701 -0.635239989 -1.050288712
H 1.9634434741 1.8659464788 0.2178435312
H 1.8824952513 -0.2363806531 1.49100628
H 3.3031900136 -0.8869027363 0.5076159268
H -1.0655331229 0.111444998 -1.9703694907
H -1.4888509155 -1.6019764332 -1.9411974908
H -1.2588390053 -1.5836399501 0.5867760442
H -2.9699169844 0.7470473406 -0.5184742843
H -3.1976039147 -0.0882530794 1.0805606585
H -0.6529422862 1.4210960579 0.1442188425
H -0.860993225 0.5951339307 1.7535797408
