13
0
C 0.4872944613 -0.8341146489 0.3058137724
C -0.7541918733 -0.9308473285 1.1524133876
O -1.2285820826 -0.022962038 1.7770444947
C -0.7710685513 1.0771774226 -1.4007515984
N 0.3180890409 1.4268510254 -0.8834002336
C 1.0088458709 0.5770401297 0.0663647812
H 1.2528285004 -1.4118179315 0.8384418552
H 0.3208802065 -1.3820172824 -0.6279260842
H -1.2873679111 0.131835409 -1.1987513784
H -1.217526099 -1.9396020603 1.1919681981
H -1.2580028434 1.7522950639 -2.1021107693
H 1.0219804948 1.1229015458 1.0132077092
H 2.0476237859 0.5244676934 -0.2680601346
