11
0
C -0.5258696932 0.645708975 0.0141291233
C -0.7569016596 -0.8472753372 -0.2619631707
C 0.589661129 -1.4498938053 -0.5714414694
O 1.4812240433 -0.5751577993 -0.2385630013
C 0.9567708546 0.6811868867 0.3266122883
H -1.1263129678 1.0251226999 0.8391887548
H -0.7521784949 1.2419693146 -0.8702059162
H -1.1161672315 -1.3934670441 0.6191955669
H -1.4667446398 -1.0618731287 -1.0605979424
H 1.1831171017 0.6571469396 1.3932930813
H 1.5112085583 1.4915902988 -0.1418043146
