16
0
C 1.559214102 1.293714165 1.2870826831
C 0.7230960061 0.3164626282 0.5086713276
C 1.0618238691 -0.9310926201 0.2230150291
C 0.0624725738 -1.6658419465 -0.7383948951
C -1.2762281352 -1.354521934 -0.2952977676
C -0.594652302 0.904318269 -0.0596049223
N -1.6047375054 -0.1198604461 -0.0026604926
H 1.8255916701 2.1684468623 0.6828882614
H 2.48084294 0.8130674025 1.6092856714
H 1.0336924222 1.664447925 2.1743763776
H 0.2171727992 -2.7394272216 -0.8103954879
H 0.2764256736 -1.2184741498 -1.7145487524
H -1.987536093 -2.1192710584 0.0011065154
H -0.4145282948 1.1881014166 -1.103480146
H -0.9596705071 1.7863986898 0.4684362458
H -2.4558632183 0.0574570182 0.5021413528
