14
0
O -0.9434015853 1.6956845519 -0.5016111137
C -0.668756382 0.6791427435 0.4467464523
C -1.0338194376 -0.7133624535 -0.1011620587
C 0.2778426167 -1.2150622159 -0.6465597858
C 1.3004112652 -0.5065738039 -0.1831134237
C 0.8386944117 0.5842217667 0.7479340549
H -0.4458769826 1.4989619851 -1.3000888851
H -1.2542071571 0.9485121348 1.3254318294
H -1.8306125058 -0.6395059124 -0.8442564475
H -1.3952325973 -1.3741653699 0.6944098898
H 0.3610255629 -2.0708800663 -1.3050294776
H 1.3276426091 1.547668698 0.5888349779
H 2.3427294827 -0.6981520634 -0.4064939208
H 1.0206026995 0.3007810051 1.7904969086
