14
0
C -1.7859586693 -0.8921874981 -0.0312263923
C -0.3306144819 -0.6295285331 0.245615653
C 0.0243923689 0.7917327979 0.6564787911
N 1.4216073615 1.0325909948 0.764686382
C 2.3907581543 0.3144070416 0.724476657
O 3.423363359 -0.2175333479 0.7170923442
O 0.5188974544 -1.4726418703 0.1362590123
H -2.437196399 -0.2895746682 0.6031858515
H -2.0022091013 -1.9503466772 0.0978430936
H -1.9898255749 -0.6210138153 -1.0705790316
H 0.4684826759 0.7006910579 -2.7151224503
H -0.4689472998 0.9959694269 1.6136670013
H -0.4187604574 1.4848169327 -0.0655074695
H 0.9977706097 0.5256051584 -2.2202954422
