11
0
N 1.925781257 0.2459771674 0.0187090998
C 0.6035784903 0.0256201622 -0.4839091375
C -0.3333563585 1.2095479399 -0.3557752207
N -1.4236337677 0.6118925345 0.0808152878
C -1.2516891677 -0.7878455761 0.3127895753
N -0.0910166437 -1.1835536408 0.0386767035
H 2.4579141019 -0.6126047637 -0.0102836395
H 1.9009473569 0.5723639419 0.9746694817
H 0.6567247291 -0.134339291 -1.5735138109
H -2.2896484628 1.0979123399 0.2543196082
H -2.0685145349 -1.3934408141 0.6896980522
