12
0
N -0.4554280947 1.8796739775 -2.1528081648
C 0.2206943207 1.0719967177 -1.6843958251
C -1.3102590282 -0.11275101 1.4537202303
C -0.0525624669 -0.222465496 1.0600485857
C 0.3593175388 -0.8471903242 -0.2396828814
N 0.9800467878 0.0960253018 -1.1789533771
H -1.5730380993 0.3564502544 2.3935647054
H -2.1271768341 -0.4851257305 0.8445666256
H 0.7476559903 0.170935864 1.6825497188
H -0.5040911874 -1.2900939533 -0.7379925222
H 1.0877728136 -1.6437860589 -0.0774593618
H 1.9250262594 0.3741044573 -0.9674587335
