12
0
C -0.7711470985 -0.6020716095 0.0149542901
C 0.0112718474 0.3164891905 -0.9263776102
C 0.6108062127 1.4989712523 -0.208125916
O 1.7569704333 1.8371286495 -0.3018239235
C 0.1225353349 -1.3276666496 0.9897950409
O -0.0990168327 -1.4291636874 2.16328856
H -1.281715002 -1.3681190527 -0.578158144
H -1.5345171264 -0.0609909731 0.5775059516
H -0.6716173846 0.7128522164 -1.6849491737
H 0.8103444208 -0.2158568495 -1.4460328631
H -0.0937102425 2.0679965525 0.4361245677
H 1.0304284376 -1.7890190396 0.5447512202
