17
0
C 1.5395235962 -0.3575748182 -1.0626688258
C -0.2264139301 0.5857199045 2.1421980893
C -0.5091504232 -0.6385053664 1.3376636602
C -0.8521803715 -0.2526771565 -0.1116203707
C 0.0919055029 -0.8166441897 -1.1885694435
C -0.8263898474 1.233062956 -0.0143763838
C -0.482899704 1.6687872918 1.2158452219
H 2.1690286486 -0.869568214 -1.7917239519
H 1.6374878034 0.7159581376 -1.2359733588
H 1.9475333055 -0.5648681819 -0.0712754242
H -1.3417977217 -1.1463930452 1.8415596238
H 0.3223907893 -1.3443108049 1.4278831762
H -1.869247061 -0.5686270579 -0.3750774427
H -0.2917618067 -0.5415305975 -2.1755161961
H 0.0426025808 -1.9078910245 -1.1369754631
H -1.0561724934 1.8727116871 -0.863781171
H -0.3979308676 2.7153064796 1.4846952603
