11
0
C 2.5920532599 -0.5350043695 0.4272812413
C 1.4586173118 -0.2108982343 0.2096713411
C 0.1102245804 0.1407109662 -0.0379812181
C -1.0710488437 -0.7441681234 0.1591821291
N -2.2052979124 0.0806724839 -0.2318905021
N -1.8095760091 1.2092897089 -0.5847805784
C -0.3959553892 1.2971030531 -0.4832271744
H 3.6015807001 -0.8137349397 0.6186261025
H -1.0561432037 -1.6450672244 -0.4610809941
H -1.2097600031 -1.0673392639 1.1950791148
H 0.1055625089 2.2131129432 -0.7532804618
