14
0
O -0.6210947683 1.3375667798 -0.7901592753
C -0.5816932118 0.4728752564 0.3274424562
C -1.3817095425 -0.7698631934 -0.0929739455
C -0.9643177554 -1.5855415899 -1.2248342733
C 1.9197865451 0.4048131412 0.1024228015
C 0.8123062177 0.1340200897 0.7743684664
H -0.1664005223 2.1523088925 -0.5651675667
H -1.1014995171 0.9373461691 1.1782744159
H -2.4575308811 -0.5768658826 -0.0812699644
H -1.2458601899 -1.5892982523 0.6510274875
H 0.1146755928 -1.3913241488 -1.3879100453
H 1.8905003995 0.9053511078 -0.8585918531
H 2.8923184877 0.1256844257 0.4874716793
H 0.8734231456 -0.3805627951 1.7307346171
