13
0
O -1.8822601522 -0.1169595249 1.9477051516
C -1.1626622742 -0.4085286821 0.9058150083
C -0.2411328033 0.7234760895 0.5587252603
N 0.744946749 0.5167732164 -0.4779875733
C 1.3258942764 -0.8073410924 -0.6006646493
C 0.3698397187 -0.3060296446 -1.6123699741
H -1.6912685371 0.7619429788 2.3383092977
H -0.6174795627 -0.7566891121 -1.6040531484
H 0.2823814385 1.0569295631 1.4699059745
H -0.8910204045 1.5581410049 0.2503989447
H 0.9584672018 -1.5831162685 0.0642153196
H 2.3884672849 -0.8297830508 -0.8121661002
H 0.7251280649 0.0456145225 -2.5738315113
