12
0
N -0.875077754 -0.8276628422 -0.9488216231
C 0.3293764292 -0.555285109 -1.2400512198
C -1.2602964698 -0.0406205913 0.228775939
C -0.0163391191 0.6867598421 0.7019693023
N 1.1254821062 -0.1272767565 1.0748097317
C 1.0313189008 0.3681103471 -0.3019871632
H -1.6829270458 -0.7046110261 0.9877052886
H 0.8042971775 -1.0020255072 -2.1098753834
H -2.0487815103 0.6573440601 -0.0628126279
H -0.0882548052 1.649129877 1.1924311574
H 0.8796749279 -1.1111976765 1.1182483623
H 1.8164861628 1.0368303826 -0.6296327641
