13
0
C 2.3892349787 0.0069877709 0.6344426592
C 0.259951859 -0.00018322 -0.6159731721
C 1.4185058001 -0.5347756071 -0.3781928332
N -1.9794755264 -0.0892138574 1.0365006336
C -1.9785679988 0.2505236019 -0.171518727
O -3.0768112972 0.4264563532 -0.9276855369
N -0.7997216665 0.5466981921 -0.9020467897
H 2.5878771299 -0.7362638909 1.4084297239
H 1.9940860738 0.8997811162 1.116506812
H 3.3390063692 0.2622254446 0.1604955588
H 1.6658431693 -1.4321706717 -0.9344490415
H -2.9298976278 -0.2082016056 1.3741398919
H -2.7993942635 0.7511313738 -1.7905181788
