15
0
C -1.7665293762 0.9536796225 -0.5704075443
C -0.3102256406 0.7186517316 -0.2148924042
O -0.1686303495 1.0231586739 1.1583950971
C 0.0939549032 -0.7095645816 -0.5466448742
O 1.5339117854 -0.8536141496 -0.7278634246
C 2.3843083361 -1.1345230709 0.2097750879
O 1.7578001063 -1.1859502394 1.3951368084
H -2.4081114622 0.2423221581 -0.0458940688
H -1.931257527 0.856881413 -1.6446110909
H -2.0566125635 1.9579830623 -0.2631875558
H 0.3223105139 1.3868123779 -0.8160872494
H 0.6300656641 0.6088440248 1.4939371796
H -0.3058087815 -0.9955387486 -1.5178387524
H -0.2622236183 -1.4038014471 0.2146633534
H 2.4283700096 -1.413208827 2.044439438
