14
0
O -1.7323859511 1.2866687711 1.1095920021
C -0.9194255627 0.709556373 0.1355224677
C 0.3003804838 1.3922972723 -0.390931555
C 0.4177482908 0.1345740097 0.4587118769
C 0.9219324452 -1.1298687016 -0.1316914846
C 0.1753231394 -2.1024257695 -0.6323159067
H -1.1854251584 1.7548618205 1.7428954708
H -1.535339921 0.1807403897 -0.5794202431
H 0.5952771122 2.3308561951 0.0634025232
H 0.5170189829 1.3112993153 -1.4486420842
H 0.7657225523 0.3224075428 1.4715362004
H 2.0046743746 -1.2354159202 -0.1500389202
H 0.6235502531 -2.9902226875 -1.060771408
H -0.9078980407 -2.0521006108 -0.6283289394
