13
0
C -1.4798166432 -0.3219773153 1.0086308898
C -0.6052023812 -0.634404024 -0.1623761055
C 0.9439786559 0.3631582708 -1.6961251965
N 0.4933083314 0.0901410413 -0.4780057282
C 1.3500710077 0.4644136159 0.6348387749
O 2.3349536815 1.1111692873 0.5037876231
H -0.9389786169 -0.0064177489 1.9023928339
H -2.0619138123 -1.2039748768 1.2790236057
H -2.1966630687 0.4806846678 0.7857435874
H -1.0551295592 -1.128062272 -1.0152576173
H 1.9722528422 0.6603709659 -1.806050868
H 0.2941436007 0.1662061112 -2.5324967704
H 1.008161962 0.0274692768 1.5779579709
