12
0
O -2.1956452942 0.8645146917 -0.4619735228
C -1.4977350628 -0.2006354229 0.1179977202
C -0.0234945828 -0.0758701084 -0.0868669033
N 0.5192933801 0.8382497811 -0.8167111333
N 1.855687893 0.5485943825 -0.7294679874
C 2.1920818255 -0.5042739061 0.0196677561
N 0.9453079265 -0.8945484231 0.4266764516
H -1.5822298469 1.3557858511 -1.018787285
H -1.8332013749 -1.1565962448 -0.3060532071
H -1.7131216796 -0.2292505983 1.1919711602
H 2.5000657949 1.1368952432 -1.2243775456
H 0.7890630213 -1.6818632459 1.0293134963
