16
0
O 2.4415690344 0.3241160747 0.0795554383
C 1.3673346498 -0.5462591297 0.3463933236
C 0.0715240204 -0.1887085768 -0.3834948721
C -0.994091907 -1.2403181938 -0.082337811
C -1.6032665532 1.4446278375 -0.7411798684
C -0.3668337443 1.259067028 0.0227796685
H 2.3419406868 1.1200065868 0.603568093
H 1.6864366847 -1.5339688111 0.0043142436
H 1.174205202 -0.6192655765 1.4253601978
H 0.2789826433 -0.1770483589 -1.4556269827
H -1.3116117733 -1.1933639575 0.9630859111
H -0.6049820055 -2.2437365002 -0.2681735435
H -1.878471754 -1.1122281988 -0.709296291
H -2.4507177617 1.212018488 -0.0668746128
H -0.4370123085 1.3022590125 1.1192583887
H 0.4234098863 1.9225412762 -0.3393572831
