12
0
C 1.1058068401 0.1884904189 -1.035787047
C 0.1636356411 0.6394906227 1.2761230285
O 0.8761511732 1.594705458 1.3883860929
C 0.1798728631 -0.2864775922 0.0673105864
C -1.2550790363 -0.4886411803 -0.385972124
O -2.0991023446 -0.9942848556 0.2987160319
H 1.1197556704 -0.5211094153 -1.8645750604
H 2.1220830208 0.3042052772 -0.6626614654
H 0.788025211 1.160043865 -1.4178983507
H 0.4934907073 -1.2590138671 0.4684269455
H -0.5673176253 0.3616381083 2.0589695328
H -1.4910711206 -0.1172458395 -1.4048561706
