12
0
N -1.3734746891 0.1820464339 -0.46916512
C -1.2973154896 -0.4367362755 -1.5671738854
C 1.3250485536 1.1753884599 1.0587288913
O 2.1129710655 1.6123601053 1.8423807158
C 1.7638445967 0.4308950104 -0.144078789
N 2.0970187629 -0.1388353681 -1.0824489418
H -0.1817336366 -1.3949513676 1.4747468861
H -2.3415603907 0.3887729723 -0.2287770967
H -0.3160642738 -0.7228736363 -1.9442966525
H -2.1645566393 -0.7094632404 -2.1745464475
H 0.233610999 1.2710828384 1.1353951613
H 0.1481061412 -1.6796629325 2.0808332783
