13
0
C -1.61591675 0.2869841558 0.1119409554
C -0.8326319703 -0.8235947872 0.7890684517
O -0.1741082241 -1.6678401932 -0.1319680749
C 2.0598772281 1.3033327926 -1.3380025341
O 1.8332352463 2.3784487712 -1.6985929391
N 2.1611255183 0.150936925 -0.9765936235
H -2.1532085481 0.8897513755 0.8477969325
H -2.3398279455 -0.1306279198 -0.5896420954
H -0.9521835629 0.9539045776 -0.4447719855
H -1.5071318909 -1.4671702505 1.3577040572
H 0.5003238794 -1.1467421591 -0.5801100371
H -0.1163070119 -0.3970154287 1.5046051187
H 3.0222370317 -0.2760028592 -0.6827212259
