10
0
C -1.6004033963 0.400168056 0.3408157659
C -0.1432531545 0.0236501859 0.4038945895
C 0.8209229349 0.8177154242 0.0158106603
O 1.6743787898 1.5220606518 -0.3290601288
H -2.0520485772 0.3898684444 1.3346770407
H -2.1585586579 -0.2948249544 -0.289427344
H -1.7312736665 1.4000372029 -0.0726584907
H 0.1717083105 -0.9377937437 0.7889954481
H 2.109753436 -1.7530540112 -1.1932044036
H 2.8309609814 -1.623164256 -1.0582951374
