14
0
O 1.2530327031 -1.4224471372 0.4250314209
C 0.9405826419 -0.1240931683 0.9588104219
C 1.2121040908 0.5315901347 -0.3708234351
C -0.1338822457 0.6836352259 -0.9568459827
C -1.1881550161 -0.0613802534 -0.1251245966
C -0.5469635655 -0.0992905652 1.2634875955
H 2.1671559697 -1.3956968591 0.1195307349
H 1.5913744687 0.1364130654 1.7950947524
H -0.7738277612 0.811957595 1.8241633418
H -0.184839371 0.5619070688 -2.0389977741
H -0.2165138072 1.7784268229 -0.7860418394
H -2.1647377291 0.4232669566 -0.1346183558
H -1.3134506822 -1.0713799179 -0.5174157238
H -0.8543566962 -0.9513239683 1.8714914399
