11
0
O -1.6248156145 -0.6621779872 -0.0752527852
C -1.4315428542 0.2549543995 0.7431473703
N -0.2664202378 0.8377028649 0.9320589427
C 0.8800658215 0.4912886962 0.0998161981
C 0.7724628311 -0.9541095783 -0.2987524207
C -0.3303883834 -1.6817861479 -0.4594812309
H -2.266307894 0.6046981286 1.3550180554
H -0.1868007796 1.5398938652 1.6458009677
H 0.8963829036 1.1512007775 -0.7745692141
H 1.7854963961 0.6821906648 0.6769865944
H 1.6972678113 -1.4946626831 -0.4695274777
