14
0
O 1.7302720995 0.3404290962 -0.7588609057
C 0.8879937956 -0.0323048468 -1.5286621558
C -0.3951756811 -0.7084241475 -1.1265765964
C -0.6518495206 -0.6681460663 0.3657964641
C -1.0649365608 0.6953205176 0.8537050829
O -1.2930758672 1.6295189311 0.1357950452
H 1.9174944644 0.9616408261 1.7866993644
H 1.8111374925 1.095681922 2.5135114607
H 1.0332614523 0.0907396377 -2.6207291753
H -0.3367617058 -1.7390943494 -1.4937675981
H -1.2093137352 -0.2334524022 -1.6806728425
H -1.4470143641 -1.3649090348 0.652040625
H 0.2342867504 -0.9695043478 0.9314409786
H -1.1685916199 0.7915232641 1.9529352532
