17
0
C -2.0486586291 -1.2919676283 -0.1774585812
C -0.820905974 -0.8612217694 0.5858954277
O -0.8665077729 -0.5736224043 1.7547977409
C 0.3224374154 2.1047376588 -0.4872014356
C 1.3233862963 1.5383764696 0.1680073818
C 1.5426877089 0.0712747447 0.3926752216
C 0.4836534281 -0.8464201738 -0.1930574958
H -2.8829339927 -1.4400434279 0.5043149613
H -1.8522011571 -2.2080752917 -0.7390683223
H -2.3076026838 -0.519358185 -0.9062839712
H 1.6055571005 -0.1065940896 1.4701960194
H -0.4774188017 1.5310851124 -0.9427425334
H 0.2573075532 3.1807034951 -0.5891569862
H 2.0834645097 2.1822769767 0.6036362084
H 2.5228833768 -0.1965515888 -0.0144878589
H 0.8431872545 -1.8820224428 -0.1785057611
H 0.2861243678 -0.6186534556 -1.2441840154
