10
0
N -1.5999433919 0.0311305895 -0.3450604367
C -0.3207677945 -0.3260851415 -0.0680313556
N 0.0570774979 -1.538073894 0.0516477442
O 1.5405214797 -1.4187381687 0.2807218476
C 1.9891158032 -0.2282389547 0.299749932
C 0.8042165959 0.6582895996 0.0662266761
H -1.8890660928 0.9691070771 -0.1405920419
H -2.30672854 -0.6794102657 -0.271539153
H 0.9535260728 1.2629332395 -0.8321390541
H 0.6814703696 1.350664919 0.9036798413
