17
0
C 1.4891184624 0.1740626877 1.0259658566
C 0.5897040707 0.1640517258 -0.1740647043
C 0.0509572111 -1.1769861417 -0.8388328437
C 0.0562674696 -0.134409838 -1.9683439918
C -0.9835567729 0.7150382935 -1.7118133922
C -0.577387634 1.2259408352 -0.3351914261
O 1.2319956159 0.477022663 -1.4253819441
H 1.9438429469 1.1598369184 1.1391819151
H 2.2839830145 -0.5638588653 0.9163415535
H 0.9173757335 -0.0542698331 1.9269995495
H -0.9024083957 -1.5826582474 -0.5057166401
H 0.8361259651 -1.9302746318 -0.8953213193
H -1.8482249621 -0.8416549591 2.4445183415
H -1.6687411381 -1.5461044172 2.2825876101
H -2.0068108882 0.4518639646 -1.9446913547
H -0.1671877503 2.2291713725 -0.2139993485
H -1.4340519487 1.112533473 0.3367381384
