19
0
C 1.779664453 -1.5828135457 -1.5755417416
C 1.8470043502 1.5688620752 0.4920834427
C 0.5725681336 1.2539838863 0.6576381381
C -2.6662267404 0.0722520298 -0.8609875415
C -1.6717748926 -0.5368188804 -0.236003892
C -1.2159246854 -0.1881691364 1.1470612177
O 0.1786325158 0.0789112781 1.2038249229
H 1.327984332 -2.468347626 -2.0219445995
H 1.3382943821 -0.6850241217 -2.0060166482
H 2.851032798 -1.5872455696 -1.771468381
H 2.6377920717 0.8825908787 0.7651075838
H 2.110475412 2.5314930324 0.0795275622
H -0.2314698207 1.9304346292 0.3756490065
H -3.2112673104 0.8877791843 -0.3960250956
H -2.9773192689 -0.221804216 -1.8558449397
H 1.605700207 -1.5803592915 -0.5004508155
H -1.1295655036 -1.3439179123 -0.7206597523
H -1.781941665 0.6664034553 1.5362199182
H -1.3687397683 -1.0302531493 1.8242306152
