17
0
C -1.7225929436 0.1184137297 -0.0298207472
C -0.2097684221 0.1242287451 0.0998879487
C 0.5763995217 0.2342471375 -1.2421142965
C 1.3942075989 -0.9710986338 -0.8000733842
O 2.4233730644 -1.4507911005 -1.1681873217
C 0.4452975274 -1.2680049253 0.3526749818
C 0.2616020689 1.1583385066 1.1125096486
H -2.0545304081 -0.6293129122 -0.7540512712
H -2.1963796806 -0.1090840287 0.9283732607
H -2.0907419662 1.0923828508 -0.3619102002
H 1.1328230835 1.151691441 -1.4379018181
H -0.0314418849 -0.0075080577 -2.1179056249
H 1.3509104013 1.1588615199 1.2042005598
H 0.9052861261 -1.449777443 1.3248551886
H -0.2149969574 -2.1042995148 0.1088682126
H -0.1562040642 0.9537956423 2.1012668097
H -0.0485050648 2.1632410431 0.8158760536
