17
0
C -1.0896384393 -1.1762125487 0.2318503529
C -0.2606476277 -0.1371304453 -0.4011234016
C 1.2209711811 -0.1834052188 -0.5566112654
C 1.9727733801 0.0165004839 0.7603891051
O 1.7661400498 1.297381999 1.3111214205
C -2.1534476911 1.1260411275 -0.9605934324
O -0.8651585303 0.8757321847 -0.9275877786
H -1.8287634989 -1.5627659848 -0.48951626
H -0.4820055055 -2.0028599628 0.5950143102
H -1.6770293233 -0.7748419941 1.0716126996
H 1.5232254124 0.5956943203 -1.2592432087
H 1.5241740037 -1.148545295 -0.9816511591
H 3.0471503963 -0.0729348259 0.5900750774
H 1.6876902163 -0.7679276048 1.4757002737
H 0.81972002 1.4498465779 1.3728773582
H -2.4104681034 2.0547801777 -1.4371999854
H -2.8478989402 0.4852420093 -0.4433601063
