14
0
C -1.5275106886 -0.3213603946 0.010618903
C -0.0829541633 0.0839769762 -0.105570597
C 0.8134401062 0.0632153889 1.1132085261
C 1.010790328 -0.9505974379 0.0460037225
C 0.2172299281 1.1617964693 -1.0745919175
O -0.6003823484 1.7199346485 -1.7552174142
H -2.1451769593 0.5287972764 0.3033174245
H -1.650131405 -1.1095972636 0.7551440864
H -1.9041904726 -0.6883499551 -0.9451538636
H 1.5521353886 0.8481091875 1.2193375071
H 0.3481651592 -0.244086165 2.0403358609
H 1.8858926116 -0.8657046978 -0.5863557969
H 0.6836804681 -1.9658650811 0.226956626
H 1.2935200473 1.4386750485 -1.1408090674
