12
0
O -2.7942719049 0.7108148272 -0.1035392677
C -1.5129036203 0.1582226404 0.0244279635
C -0.5107960191 0.8438846059 -0.8135702233
N 0.2643101082 1.3659917751 -1.478609019
N 2.8561784924 0.3133177221 0.1657425208
C 2.102917949 -0.6225002313 0.3212206967
N 1.3356190145 -1.5213869567 0.6351612909
H -3.1064074623 0.5886159846 -1.0027083313
H -1.4763143469 -0.9084220052 -0.2184853914
H -1.2107702715 0.2621233464 1.0662622089
H 2.6416219897 0.9794141053 -0.5665428617
H 1.4784270715 -2.4274878138 0.2121964138
