12
0
C -1.3573752924 0.6982852349 -0.0706687215
C -0.7183753644 -0.5763289818 0.3895980103
O -0.1217277101 -1.406495762 -0.6026597478
C 0.7225532523 -0.8278879665 0.3705432669
C 1.8717598925 1.4350361795 0.1053469771
C 1.7180364389 0.1731430561 -0.1093484904
H -0.7472441543 1.1997939674 -0.8198449512
H -1.5032896535 1.3737212628 0.7749179725
H -2.3357523383 0.4859878961 -0.5050610124
H -1.2864069284 -1.1391726071 1.1285765061
H 1.1366395446 -1.5379712052 1.0826214142
H 2.5454883129 -0.1571010742 -0.7529732239
