11
0
C -1.49658415 0.4008664164 -0.7058305444
C -0.3417153093 -0.4178987214 -0.7957650288
O 0.973154267 0.1205557826 -1.0620383713
C 1.5252570881 0.3770968788 0.13276584
N 0.8858655944 0.1173355838 1.1904248134
C -0.412737359 -0.3886404429 0.8073677797
H -1.1694863315 1.4514088173 -0.6267553745
H -1.2143945827 0.278902522 1.1770544526
H -0.4057584558 -1.4110563517 -1.2290467467
H 2.5191830455 0.8077310525 0.1010342789
H -0.6496368067 -1.3747505375 1.199273901
