15
0
C 1.0110958265 0.5194337973 0.1945749154
C 1.1282965749 -0.7827488253 -0.6296570448
C -0.3422504645 -1.1059443524 -0.2814239639
C -0.5265217725 0.3579518183 0.180389362
O -1.1586084032 1.1725868314 -0.8053948753
N -1.1880557972 0.5426856904 1.4306595021
H -0.7173780313 1.0540136658 -1.6500655301
H 1.3958932077 1.4389746296 -0.2478406005
H 1.4057739193 0.4091161687 1.2038746571
H 1.2799703384 -0.5965260987 -1.6945715923
H 1.8773327191 -1.5025678115 -0.3041465171
H -0.9974775574 -1.4336644925 -1.0892502007
H -0.4285644153 -1.7937274061 0.558840848
H -1.1507143132 1.5196836014 1.6964847406
H -2.1661698312 0.2943367834 1.3397252994
