14
0
N -2.560231114 -0.5344977034 0.1752659391
C -1.2956528986 -0.3486626782 0.13845745
C -0.0739077905 -0.983771211 0.3400686666
C 0.9902721722 -0.0915299905 0.0303746552
N 2.3095391162 -0.4250421022 0.1927224123
C 0.5380087261 1.1263802211 -0.3994308744
N -0.9217333742 1.0735282259 -0.2911377532
H -1.4185047348 1.254916475 -1.1598730508
H -2.7794093577 -1.4841849172 0.4506493773
H 0.0357042153 -2.008903342 0.6541068355
H 2.9808439927 0.1280496864 -0.3093460079
H 2.5179128818 -1.4073638317 0.2054977439
H 1.0321680015 2.0756994661 -0.5029302493
H -1.3089308361 1.6986657021 0.4131998556
