13
0
C -1.7193190012 0.1321664131 0.3792696914
C -0.9009311016 -0.9802526464 -0.1143319527
C 0.1837197227 -0.4997612562 -1.0307694282
N 1.2193662987 -0.4654747283 -0.0029530504
C 1.6094722934 0.6731962866 0.6307713118
O 1.2093512465 1.7826283451 0.3775481937
H -2.2350384483 -0.0699515347 1.3173114376
H -2.4990834099 0.1140081096 -0.4087657754
H -1.2753974175 1.134857802 0.357288852
H 1.5606692043 -1.3444818464 0.3464613268
H 0.4619349262 -1.2113256897 -1.8073523924
H 0.0880728261 0.5071483713 -1.4493299301
H 2.3622618604 0.4729753741 1.4123697161
