14
0
C -0.1633509449 1.4309261108 0.1710664004
C -0.2214985236 0.0566797221 0.7424802137
C -1.2940871564 -0.6762091323 0.9681995022
O 1.0243914634 -0.4527591457 1.1472034962
C 1.871482532 -0.8605729604 0.1940947337
O 1.6602390501 -0.8673619259 -0.9805206044
H -1.1672274103 1.7935438405 -0.041889513
H 0.317220723 2.1117504362 0.8770207509
H 0.414301676 1.4360587292 -0.7545568184
H -0.6269792547 -0.5103609756 -2.3614113993
H -1.215554234 -1.6634709065 1.4025815502
H -1.1636701773 -0.348626494 -2.8541337992
H -2.2747589473 -0.2966848572 0.7184970148
H 2.802525204 -1.1998394411 0.6666434722
