17
0
C 2.6869044106 0.0121033742 0.1298141764
C 1.2214526656 0.034155603 -0.1705839061
C 0.3293719049 -0.7965962896 0.3604929057
O -1.3330296161 1.4615160605 1.2329131333
C -1.9589355372 0.3668800721 0.6524227
C -1.8371514826 0.1307601784 -0.8154469122
C -1.1353024573 -0.7989312055 0.1447159074
H 3.2664394773 -0.1836568001 -0.7760883008
H 2.9313220596 -0.7562541774 0.8644226909
H 3.0258153198 0.9757225112 0.5187375601
H 0.8945026657 0.7748460514 -0.8970191746
H -0.3883830146 1.2751683561 1.2880045091
H 0.6841606372 -1.5393234993 1.0724518103
H -2.8998698839 0.1386823193 1.1387569191
H -2.6860201722 -0.2614595825 -1.3599607809
H -1.2347713684 0.8417806862 -1.3660500222
H -1.5949386084 -1.7712616579 0.2767387847
