13
0
C -1.7597587021 0.3659860188 -0.5139577835
C -0.4882251075 0.1753415229 0.2551282977
O -0.6679440534 -0.6366893374 1.3311431287
C 0.846862423 0.2779343962 -0.4137156194
O 0.3266083362 1.2922367362 0.4445700736
C 1.9505477896 -0.5578948469 0.1178697924
O 2.1016334339 -0.7970020897 1.290165549
H -2.5102262903 0.8027945507 0.145575916
H -1.59772104 1.0308065517 -1.360267726
H -2.1285011081 -0.595428111 -0.8696780498
H 0.9126643616 0.5459914547 -1.4651018294
H 0.1789097492 -0.7127617294 1.7986167169
H 2.6210082078 -1.0029901169 -0.6407154661
