13
0
N 2.5037855891 0.9406735717 0.5465936014
C 1.2552954352 0.9805429523 0.4270589258
C -0.464066987 -1.759628374 0.0139304226
C -1.2299475469 -0.7305605408 -0.3077572458
C -0.7293766319 0.6085546591 -0.7567739858
O 0.6818211121 0.7113926921 -0.7570366111
H 2.7711063618 1.1937145017 1.4910840433
H 0.6168867848 -1.7008360284 -0.0366920919
H -0.8977549828 -2.6992099951 0.3314740037
H 0.5387476885 1.234171122 1.218133752
H -2.3125844623 -0.8178181319 -0.2609897006
H -1.1669657534 1.3999249431 -0.1341192615
H -1.0425096073 0.8042546282 -1.784516852
