13
0
C 1.0184334319 -0.6624865249 -0.202073124
C 0.4577424963 -0.3499991005 1.1991058626
C -0.5446315573 1.2359019153 -0.260174734
C -0.0213864676 0.0609284555 -1.0345147351
C -1.3365738416 0.0421485691 -0.3106241015
N -0.7559703648 0.464143532 0.9598992191
H 1.0438642579 -1.7323088764 -0.4171278325
H 2.0199995646 -0.2565604638 -0.3551808732
H 1.1480084032 0.2300951997 1.8126471891
H -0.7333703599 2.2815256744 -0.4276204243
H 0.0119825998 0.084795059 -2.1182538952
H 0.1718677883 -1.2457717197 1.751678018
H -2.3661759506 -0.1786457197 -0.5300695691
