16
0
C -1.1686956144 -0.2207829243 1.3440843448
C -0.7161335297 0.397635738 0.0324182751
C 1.2533799481 -1.9627985171 -1.0640676117
C -0.3890332863 1.9064928235 0.0145621797
O 0.9760108674 1.6462582421 -0.4158411916
C 0.7151612394 0.2923879548 -0.354570661
N 1.4881557817 -0.6312206853 -0.8194816563
H -0.5038906425 0.0657635135 2.1607882543
H -2.1819463516 0.1014921455 1.5919051155
H -1.1714097567 -1.3095609211 1.278437526
H 0.3646624661 -2.3721603945 -0.6052578915
H -1.3844693756 0.0961501577 -0.7828212515
H 2.1433296191 -2.5720806061 -1.103114234
H -0.4008109908 2.3924908333 0.9913617299
H -0.918215378 2.5095887556 -0.7224436044
H 2.3949120039 -0.2898871154 -1.1159153234
