16
0
C 1.8178015921 -0.144226724 0.2031070857
C 0.4525315747 -0.4820498788 0.8048064928
C -0.4949212844 -1.1414805872 -0.155915297
C -1.6335644425 -0.4427936464 -0.2222504491
C -1.5331512059 0.7211288403 0.6649486145
C -0.3349992573 0.7136744685 1.2594218101
H 2.4555634899 0.3516042529 0.9367858989
H 1.7016589718 0.52146699 -0.6538829667
H 2.3286826892 -1.0478951953 -0.1338474323
H 0.6037226414 -1.1514870558 1.6637641294
H -0.2953443357 0.8276431296 -2.5610811039
H -0.2599966845 -2.0462600605 -0.7006720446
H -2.4960616737 -0.6829874373 -0.8299473988
H -2.3126870744 1.4578855486 0.8058108874
H -0.0232902713 1.1680646814 -3.1667401092
H 0.0385382707 1.4416476741 1.9670008827
