8
0
N -0.5983224656 -0.1244319512 0.5796590574
C -1.0031239669 1.0326562354 0.2842043685
C 2.6087145291 -1.464843589 -1.3922028643
N 1.6742372751 -1.1379380556 -0.7847407753
H 0.8458332863 -0.8342497511 -0.2529362459
H -1.1659771903 -0.5670988207 1.2980467133
H -1.8690824956 1.5100241213 0.7467822878
H -0.467355972 1.6003628108 -0.4754675416
