13
0
N -1.1997784446 -0.8389863736 -1.3613046854
C -0.3220902563 0.0578758978 -0.7121351457
O 0.4274421258 0.7940607082 -1.6298566154
C -0.7557574079 0.7320667558 0.5563976073
C 0.3633658292 -0.2722434498 0.5885308131
O 1.6395389575 0.2563500621 0.8175788917
H -2.110824112 -0.9057413141 -0.9435441815
H -0.8067728354 -1.7471815807 -1.5500782836
H -1.6986006177 0.4675064162 1.0187397765
H -0.4623473932 1.7681896906 0.6698627345
H 0.1693751078 -1.2384235767 1.0473935252
H 1.2031498271 1.1239637426 -1.1636908983
H 2.2883132198 -0.3775859784 0.5033264616
