16
0
C -1.3398001733 1.503887424 -0.1534452651
C -0.0893665592 0.7033787216 -0.0745764873
C 0.1438807176 -0.6008838402 0.0586915234
C -0.8342917789 -1.7182608132 0.1765353376
C 1.6391850867 -0.7720549673 0.0729790101
C 2.2511106614 0.6016344184 -0.0716611183
N 1.1806601515 1.3645852358 -0.1451718897
H -2.2164667232 0.8590317354 -0.1187588613
H -1.3813996004 2.0778395649 -1.0829872703
H -1.4100122325 2.2113472585 0.6771036974
H -0.6707834025 -2.464036097 -0.6056359327
H -1.8653299303 -1.3716520397 0.0976321068
H -0.7281289569 -2.2333518969 1.1349748475
H 2.0124798182 -1.2301658955 0.9959760013
H 2.0066464203 -1.413504215 -0.7360349768
H 1.2432585016 2.3658844061 -0.2487057227
