12
0
O 2.8600793469 -0.802620623 -0.4063831188
C 1.7458052219 -0.356616276 -0.4164921982
C 1.1593355241 0.2790291536 0.8106728038
C -0.9976833547 0.6875847958 -0.0774506091
N -0.0023470111 0.7498793415 0.9693054347
C -1.6314705997 -0.6943491909 -0.1793440801
O -2.7260922302 -0.8816003494 -0.6173739191
H 1.125721123 -0.4031928227 -1.3305295361
H 1.8561866769 0.3281077642 1.6485586502
H -0.6094791683 0.9223926102 -1.0762488656
H -1.7902371738 1.4033788194 0.1369097944
H -0.989240355 -1.5354292227 0.1617646436
