8
0
N -0.3832138535 0.2648932365 0.0835983775
C -0.5051924893 -0.9220105884 -0.6106146315
O 0.4016721124 -1.6698547502 -0.8479065432
C 0.8076941852 0.7485592981 0.6048215493
O 0.8711965529 1.78577531 1.2033153151
H -1.2021545162 0.8339939696 0.235193663
H -1.5440045779 -1.1134403886 -0.9288811733
H 1.6601955863 0.085768913 0.4083704431
