15
0
O 1.8554539067 -0.6614533225 -0.9408777499
C 1.1917235277 -0.36957202 0.3066258235
C 0.5941340642 1.0283204568 0.1251359706
C -0.7230101671 0.7559762009 -0.5632354524
C -1.9022382425 0.3582913668 0.2012232841
C 0.0482439179 -1.2354275628 0.7206929684
O -1.0630128866 -0.657312212 -0.3923847175
H 1.8980802954 -1.6156364349 -1.0231718043
H 1.9303101493 -0.3725832067 1.1174784399
H 0.44539173 1.5116925921 1.0898037817
H 1.2390126206 1.6487917668 -0.4944842395
H -0.8545041849 1.0702046699 -1.5914419129
H -1.8372991323 0.347706631 1.2826010533
H -2.8867431082 0.4028605016 -0.2499371679
H 0.1469755099 -2.2475844273 0.3051337228
