13
0
O 2.0036899345 -0.7035822 -1.1474623024
C -0.0908183681 0.2498547747 0.2487898009
C -0.8451646513 -0.5787636898 -0.7528483288
O -2.0929846843 -0.1637097134 -0.1655768677
C -1.4282389148 0.6441441748 0.8208533553
C 1.1522277437 0.5653223333 0.5461833737
O 2.303630189 0.1549856011 -0.06013713
H 2.4179333585 -1.522679555 -0.8523264322
H -0.7032663219 -1.6613301223 -0.6855341984
H -0.7539601449 -0.2645494612 -1.7957757024
H -1.6975329908 1.7013997434 0.7307322037
H -1.6389837191 0.3004044359 1.8387523079
H 1.4141935696 1.2419336786 1.3513369204
