11
0
N 0.5878255405 0.9789202945 0.0178096444
C 1.1772530775 -0.1239869153 -0.5753234127
C 0.322159241 -1.3151988097 -0.5017883332
N -0.8408871483 -1.3511528488 0.0460553248
C -1.3431575613 -0.2053204941 0.6097165036
C -0.644092264 0.9461665753 0.5987620988
O 2.2758783098 -0.071960758 -1.0872150326
H 1.1278248619 1.8302326541 -0.0019499019
H 0.7254204191 -2.2192918909 -0.9483904242
H -2.3219209818 -0.2655611184 1.063360147
H -1.0076964943 1.8680033113 1.0315613859
