16
0
C -1.2111553709 -0.0834262997 1.2650083591
C -0.9656014856 0.0178835091 -0.2146776489
N -0.8589189454 1.3572922203 -0.7909449788
C 0.3097861381 0.4796593936 -0.8127163851
C 1.510011178 0.8997837197 -0.0106492164
C 0.8170258568 -2.9600529839 -0.8765342884
O 1.0708785548 -3.0743465498 0.2119425086
H -0.6994962593 0.7127475375 1.8039264364
H -2.2779980759 0.0048205048 1.480017153
H -0.8646545992 -1.0440497518 1.6532795181
H -1.5091037763 -0.7162437837 -0.8057555736
H -1.3019923186 1.4043366084 -1.6990953504
H 0.5542713775 0.029197663 -1.7722657566
H 1.213054629 1.4030624582 0.9082937485
H 2.126024392 1.5942485669 -0.5853445652
H 2.1273897051 0.0366951875 0.2500390397
