19
0
C -2.635378786 -1.0063098651 -0.1477077995
C -0.4839131978 1.9010274777 0.1686384954
C 0.3473011236 1.0449220761 1.0613140906
C 1.4545123346 0.3564410837 0.2436085788
C 1.5712903415 -1.15766745 0.4133182967
C 1.0767372562 0.7705011818 -1.1360822749
C -0.0023728614 1.5807542519 -1.1577168213
H -1.8916561228 -1.1825551307 -0.9243136096
H -2.336414605 -1.5170877357 0.76738716
H -3.5991566795 -1.3918562542 -0.4766883791
H -2.7129490356 0.0643889509 0.0396983454
H 0.7063937942 1.610613242 1.9252253978
H -0.3542762274 0.3116217874 1.4844604472
H 2.4243259877 0.8091250868 0.4853782037
H 0.6247987159 -1.6464256404 0.1706094511
H 1.8232560381 -1.4069023227 1.445190636
H 2.3456386796 -1.5773662392 -0.2318462052
H 1.6306918366 0.4377987758 -2.0109345985
H -0.4376255926 1.9859497241 -2.0637094145
