14
0
O 1.3546595139 -1.5925496692 0.7014590445
C 0.7276232517 -0.6309519432 -0.1155909484
C -0.7750540684 -0.8625515435 -0.3634714311
C -1.2912230328 0.5322083947 -0.5865898082
C -0.4228023977 1.4482058993 -0.1757994046
C 0.8210422669 0.8212682397 0.3908520052
H 0.9288281512 -1.5860341062 1.561852708
H 1.2496292592 -0.6956804195 -1.0730355261
H -0.9607979438 -1.5447116075 -1.1947959321
H -1.242520269 -1.3116419828 0.5230055031
H -2.2687593996 0.7455571542 -1.0013473066
H 0.8024063459 0.845135034 1.4886062554
H -0.5881206368 2.5182049838 -0.2073426889
H 1.7458169593 1.3109765663 0.0812815295
