15
0
C -2.0992036721 0.2585529014 0.3772645937
C -1.2228154121 -0.8801145857 -0.0987322583
N 0.5549296149 0.6624992183 -1.3751375029
C 0.9449740155 0.0561826694 -0.3358380805
O 0.1245030225 -0.7413787201 0.3648084688
C 2.3053405051 0.0866450904 0.2969809686
H -3.1314501704 0.0845617695 0.0669005445
H -1.765259408 1.2027760253 -0.0515034949
H -2.0775095074 0.3328821733 1.4658870101
H -1.5562976258 -1.8321923151 0.314933062
H -1.2184819403 -0.9416691819 -1.1877858696
H 1.3102720959 1.2031738331 -1.7777871771
H 2.9867003389 0.714616607 -0.2734262472
H 2.7094787427 -0.9245924317 0.356076432
H 2.2289874003 0.4701979468 1.315246551
