19
0
C 1.9806084156 0.647790972 -0.3452889938
C 1.2910791488 -0.582133177 0.1660184542
C 1.827188193 -1.7961322777 0.1319536329
O 0.0825979575 -0.4184691039 0.7800008022
C -0.868792528 0.4756939205 0.2034851681
C -1.9617545566 0.6466547034 1.238118387
C -1.3912250488 -0.0764796949 -1.1121685509
H 2.0219078291 1.4159997939 0.4305573766
H 1.4721174872 1.0767666447 -1.211667107
H 2.9976822803 0.401523828 -0.6438846645
H -0.3931658512 1.4483137763 0.0300585694
H 1.2863068554 -2.6478038916 0.5218146765
H 2.8234393323 -1.9469944236 -0.2586634594
H -2.7229919902 1.3403657374 0.8774314112
H -2.4366668665 -0.3137229414 1.4470433629
H -1.5490672613 1.0359840832 2.1690931305
H -1.8831813935 -1.0372284512 -0.9473237303
H -0.5823112422 -0.23221097 -1.8284348422
H -2.1118997609 0.6126804717 -1.5563826234
