16
0
C 1.1171435929 0.7865979693 1.7263599822
C 0.8640086142 -0.302044739 0.7679886368
C 1.1150993867 -0.6118463674 -0.5417419439
C 0.1806033206 -1.8574170105 -0.5811280917
C 0.6837866755 -1.6912147606 0.784054262
C -1.4326623754 1.506559327 -1.200623498
N -1.9500857087 1.0296202157 -0.1532108761
H 0.1581213088 1.1673919472 2.0834761463
H 1.6554749976 1.6010551791 1.2431444306
H 1.6844977582 0.4363044045 2.5907456651
H 0.4908418254 -2.7161928131 -1.1720787611
H -0.8525848203 -1.5693591997 -0.7356253244
H 1.3122992016 -2.4092875197 1.3101427696
H -0.4094890601 1.2266308465 -1.4584360937
H -1.9462793313 2.1909309058 -1.8828449513
H -2.9040623857 1.3649206148 -0.0281703525
