8
0
N -0.2141297016 0.9325009702 -0.1429327711
C 1.0578422727 0.6297655356 0.2505903011
N 0.9756219351 -0.7055671246 0.2309996353
N -0.2248675048 -1.2488517268 -0.1377917128
C -0.9441980379 -0.2033493206 -0.3641086662
H -0.5466208098 1.8729730064 -0.2499940962
H 1.7231645222 -1.3329194797 0.4638202755
H -1.9737326759 -0.2256428604 -0.6822389657
