13
0
C -1.8448679588 0.6111599641 0.27999337
C -0.5234960838 0.1504818147 -0.2381782278
C -0.1908251868 -0.072155053 -1.5513393243
C 1.1683510095 -0.4851563811 -1.413842994
C 0.6023420752 -0.1157652697 0.7256499621
N 1.6475712647 -0.5246792223 -0.1783473092
H -2.5349584725 0.7328222423 -0.5523844208
H -1.7583700923 1.5669552734 0.8065274993
H -2.2701042844 -0.1057741796 0.9895190536
H 1.8440342003 -0.7680098654 -2.2181409046
H 0.3717745293 -0.9125661088 1.4390436213
H 0.9013075926 0.7737928963 1.2880752323
H 2.5774524069 -0.7933071109 0.0930344418
