18
0
C -2.2576426886 0.1763488873 -0.1748411426
C -1.2184859978 -0.7923573339 0.3638468404
N -0.232164523 -0.3006244247 1.3126643016
C -0.278041709 0.8881765865 1.7218437249
C 1.708002779 0.5077508625 -1.1130207859
O 0.8303038781 0.6981794601 -1.9121398859
C 2.3460877054 -0.8185462362 -0.8472842943
H -2.90235204 -0.3492423756 -0.8803891895
H -1.7887458109 1.0041035266 -0.7105771417
H -2.8946781534 0.5822744711 0.6144231212
H -0.6519848473 -1.2161098772 -0.4706881343
H -1.7028105497 -1.6444662845 0.8503436665
H -1.0284248898 1.6214871781 1.4129595324
H 0.4750319154 1.2234488299 2.4338743228
H 2.0903886859 1.3496441943 -0.4987239376
H 2.000935503 -1.564083312 -1.5615214434
H 2.0777895593 -1.1223014951 0.1693051564
H 3.4338621835 -0.7261086571 -0.888187711
