14
0
O -2.3174414705 -0.28924031 -1.2343496716
C -1.2709949096 -0.1237110622 -0.3464718904
C -0.0599719838 -0.9674515104 -0.5504898992
N 0.7068453053 0.1449510621 -0.3954538527
C -0.2817626014 1.0791013332 -0.3097527274
C 2.1027141181 0.221847319 -0.1634184853
O 2.655550262 1.2373320214 0.1089095172
H -3.0313250082 0.3033718133 -0.9946369913
H -1.5719053672 -0.2115515296 0.7126471689
H 0.2687075838 -0.7571976312 2.2593269574
H 0.1529909362 -1.7800960408 -1.2318081455
H 0.2809148682 -0.1024769578 2.621062585
H -0.2076151063 1.8708834941 0.4330206093
H 2.5873923733 -0.7620710014 -0.2611151744
