11
0
C -1.982880103 -1.2993117836 0.1457325528
C -0.7817144318 -0.4189261849 0.2824034797
O -0.4930179238 0.184139562 1.2825768121
C 2.1460192877 1.4578820798 0.049113906
C 3.0052904608 1.7121408592 -0.7431248468
H -2.6039338935 -0.9385998182 -0.6783239186
H -2.5570107046 -1.3179338926 1.0697560349
H -1.6616985095 -2.3098274616 -0.1201216478
H -0.136220054 -0.3404980409 -0.6168814729
H 1.3686264317 1.2207274298 0.7482872703
H 3.77314444 1.943004251 -1.4435621697
