10
0
O 2.9312737173 0.6724053434 0.2477034243
C 2.3638754565 -0.1708229909 -0.395558648
C 0.9399830553 -0.347469514 -0.3906858433
N -0.2058664244 -0.5470646549 -0.4362591036
C -1.5171226186 -0.5888877846 -0.3311598919
C -2.2004999852 0.3330738053 0.513939264
O -1.3197171221 1.1453207348 1.0978037065
H 2.884758182 -0.8887750144 -1.0512954439
H -2.0355469874 -1.3411772003 -0.9041160491
H -1.8119062737 1.7495532757 1.657337585
