15
0
C -1.240332899 0.8422242987 0.6123592899
O -0.837588748 0.9901967568 -0.739192933
C 0.2887107676 0.2153426586 -1.0664884438
C -0.0202750079 -1.2760797732 -1.0877206173
C -0.259778144 0.5535947597 1.647717886
C 1.0892468598 0.3463229766 1.1441555715
O 1.3760532002 0.5277653908 -0.2328865337
H -2.0117093849 0.0591513774 0.7232164541
H -1.757865157 1.7641807437 0.9040403036
H 0.5862480143 0.5445866183 -2.0621586823
H 0.8712404674 -1.828329916 -1.3855543913
H -0.814012757 -1.4708759315 -1.8090694577
H -0.3461812182 -1.6551914501 -0.1170947074
H 1.7582955731 1.0054359852 1.7096675797
H 1.3647354337 -0.668217495 1.4853756815
