11
0
C -0.3049461538 1.3866240988 0.4008684919
C -1.2034119151 0.4162621905 -0.0519830502
C -0.725506112 -0.826508761 -0.3781812908
N 0.5903735436 -1.0484287697 -0.2461209512
C 1.4519023553 -0.0954833828 0.1931731506
C 1.0825188554 1.1935472325 0.5523143594
H -0.7294674294 2.3582138846 0.6509609079
H -2.2638450676 0.6153998902 -0.1524073339
H -1.3333322678 -1.6464726792 -0.7338426207
H 2.4787251139 -0.4528738593 0.2351382073
H 0.9497550778 -1.9615088448 -0.4842408705
