14
0
C -1.257273051 1.6105898021 -0.5550873943
C -0.5278937165 1.0464128979 0.40008161
O -0.1171568238 1.6776685188 1.5333170801
C -0.0227069819 -0.3621092282 0.3680890549
C 1.4784140251 -0.4293876102 0.1877261449
O 2.0318786487 -1.291174565 -0.4361549811
H -1.5369707342 1.0465401883 -1.4323617195
H 0.0426342791 -3.8506118909 -1.4521086548
H -1.5950877519 2.6379454005 -0.485198854
H -0.4044321864 2.5941495811 1.5156631327
H -0.2464331367 -0.8352228839 1.3313756271
H -0.5015991346 -0.9437002656 -0.4171057492
H 2.0552839656 0.3746129556 0.6852322921
H 0.5563465988 -3.3324369007 -1.2946695888
