15
0
O 2.3085147954 0.7206011879 1.161869027
C 1.0450280816 0.796243222 0.5853878252
C 0.9865948743 0.8113465854 -0.8971021688
C -0.9408287599 -0.7317031371 -0.027168167
O -1.1215242399 -1.654372412 0.9595079178
C -1.9349498851 -0.2079042903 -0.7383616909
C 0.4933626563 -0.3973103546 -0.1525029596
H 2.2389308002 0.221226913 1.9781683812
H 0.3232060643 1.4095731473 1.1189637634
H 0.2711082456 1.4658308716 -1.3756250352
H 1.9290893768 0.7022515638 -1.4161406081
H -2.0528169001 -1.8831220124 1.0124519466
H -2.9688547323 -0.475758872 -0.5539037579
H -1.7349290971 0.4970801035 -1.5302495411
H 1.1489657201 -1.260747516 -0.1612109326
