13
0
O 2.0051610395 -0.9482276651 -1.4156864116
C 1.6744616705 0.106761226 -1.034236721
N 1.4529989324 1.2248042403 -0.6854750419
C 0.4285837585 2.01867729 -0.0715350898
C -1.4097512588 -1.3716201263 -0.4276349226
C -0.7734196277 -1.4621885824 0.7286264457
H 0.3442030025 2.9670265582 -0.6007257723
H 0.6957873981 2.2289934954 0.9647900272
H -0.5335012279 1.5062647258 -0.091472605
H -2.4045022766 -0.9454322219 -0.4984076889
H -0.9613501782 -1.7281985911 -1.348062189
H 0.2175594061 -1.8973229043 0.7936401299
H -1.2181156386 -1.1115694449 1.6533148394
