15
0
O -0.9769206212 -0.2167856308 1.3062100657
C -0.0584554889 -0.0177925898 0.250027002
C -1.1603277526 0.0729807826 -0.8036485962
C -2.0897829388 -0.1635877276 0.3923798123
C 1.2442928514 -0.7159395604 0.282566049
C 2.0158360346 0.2089131636 -0.5920027715
C 1.1666627799 0.771793619 0.4933703107
H -1.1488358516 -0.7162971562 -1.5524165084
H -1.2551958829 1.0448688029 -1.2836617844
H -2.6409718482 -1.1064227236 0.3847107055
H -2.7683446855 0.6555017951 0.6394992073
H 1.5807473552 -1.4901777174 0.9520590336
H 1.7237364156 0.3415483887 -1.632280701
H 3.0872527865 0.242237769 -0.426659016
H 1.4339588466 1.3617617847 1.3544661915
