17
0
C 2.0508464682 -0.0516477685 0.2098222193
C 0.5587524419 0.0142849484 0.0634817647
C -0.3389532505 -0.9795408737 0.7979396969
C -1.7469091927 -0.5360464217 0.3500634313
C -0.0899869654 0.4114554886 -1.2303783439
C -1.4079788157 0.6389878843 -0.5587914521
C -0.1636886909 1.3216633966 -0.0837258458
H 2.54039248 0.7355691188 -0.3665609575
H 2.3440190687 0.062943446 1.2559085449
H 2.4337960457 -1.0135976855 -0.1385636729
H -0.2042404452 -0.9041869316 1.8801673915
H -0.1126371124 -2.0081148923 0.5052289859
H -2.3719824653 -0.2281654285 1.1908800195
H 0.2689343648 0.5323773575 -2.2378855378
H -2.2762133751 -1.3232845375 -0.1908889831
H -2.1770237324 1.2110677581 -1.0637511815
H 0.120806176 2.350681141 0.0528289205
