14
0
C 2.9773462272 -0.2482108983 -0.2026389924
C 1.6977834173 -0.2288131262 -0.4744978685
C 0.457987072 -0.2057536627 -0.7356275446
C -0.8278332829 -0.1779261055 -0.9956089751
C -1.859604305 -1.0125911328 -0.3019894891
O -1.1487559991 1.7633567556 1.6378861885
H 3.3776599159 -0.9090895151 0.5573220754
H -0.6133307702 1.2354970939 1.0380185924
H 3.6715208462 0.3930651331 -0.733249498
H -1.1785500448 0.5107111473 -1.7609692295
H -1.4022021179 -1.6964125072 0.4112317132
H -2.5631519146 -0.3698545179 0.2333433502
H -2.4330460452 -1.5920623447 -1.0292130557
H -0.717260999 2.6180076806 1.6702467331
