10
0
O 2.1519979623 0.9706025038 -0.1165885822
C 1.4971155118 -0.2072432464 0.2763413536
C 0.0227041391 -0.3135641713 0.1257159106
O -0.4324408493 0.8048515712 -0.3693192696
C -3.0282641883 -0.5646964591 -0.1795699621
O -3.7029514219 -1.4266035511 0.0620540152
H 1.4858331242 1.5921140456 -0.4222363887
H 1.9046614848 -1.0729540543 -0.2651455214
H 1.6856048362 -0.4210595419 1.3393496585
H -1.3975585989 0.7186819033 -0.458578214
