12
0
N 2.4183418855 -0.6122859007 -0.1840736348
C 0.218311537 -0.371632032 0.0140488281
N 1.2456245756 -1.1572867731 -0.0273515928
C -1.1513679832 -0.8046498542 0.1823593489
C -1.8914061225 0.3249030139 0.1644230091
C -0.9454009214 1.4144174119 -0.0147005229
N 0.2862676644 1.0179875354 -0.103705861
H 2.5023535043 0.3898143387 -0.2893969136
H 3.2046906677 -1.2287277408 -0.2388094602
H -1.4714886131 -1.8291631456 0.2949985608
H -2.9624836064 0.4212458001 0.2605614761
H -1.2011475877 2.4665193464 -0.0753132378
