11
0
N -2.3220461655 -0.3368787211 -0.3439094185
C -1.0542580745 -0.6459677216 -0.1414482455
O -0.4357746239 0.4498506836 0.3143109912
C 0.9483488331 0.2741512355 0.5608169903
C 1.750002202 0.1280333292 -0.7150718537
O 2.9436869291 0.0333428612 -0.7141987625
H -2.9428216069 -1.0478225694 -0.6816319956
H -2.699333897 0.586167095 -0.1626825246
H 1.1217510404 -0.6039709991 1.185500398
H 1.2935313619 1.1605628728 1.0946559674
H 1.1571010012 0.116252934 -1.6514695466
