15
0
C -0.5074163192 1.4955922327 -0.3412799287
C -0.045508653 0.1489870053 0.2070813913
C -1.1972585318 -0.6753410795 0.7743640912
N 0.6354332984 -0.6175438502 -0.8610953099
C 1.8544296046 -0.8204807286 -0.4957923995
C 2.148699275 -0.220145258 0.8532948968
N 0.9967007005 0.3179177811 1.1829695155
H -0.9129580884 2.081763306 0.4814151882
H -1.2828824945 1.3727822601 -1.1007231907
H 0.3364741244 2.0395658788 -0.7659396423
H -1.979017665 -0.8381246367 0.0290050449
H -0.8312841489 -1.6368637385 1.1349325161
H -1.6256095076 -0.1367009121 1.6178154307
H 0.2061556423 -0.926056655 -1.7202229085
H 2.5327027634 -1.3732736054 -1.138707695
