13
0
N -2.1471390439 -0.3052413423 -0.0453532452
C -0.8646738739 -0.059132033 0.5681254537
C -0.1928275398 1.1835039525 0.0407911473
C 1.0512164978 0.8636706907 -0.297951137
C 1.1742282375 -0.5875344179 -0.0301215888
O 2.2961057426 -1.2869105138 -0.256870514
N 0.1216620567 -1.1313179981 0.4263178697
H -2.0233183868 -0.4796933678 -1.0355363179
H -2.5525489906 -1.1433114591 0.3509066579
H -0.6765665285 2.1481685428 -0.0170826306
H 1.8263972532 1.5091110314 -0.6896200076
H 2.9737844541 -0.7092177258 -0.6127794922
H -1.0328598784 0.0772146406 1.6444518046
