15
0
C -2.3433212679 0.0316807882 -0.2032749064
N -0.9260379235 -0.0847234945 0.0510203343
C -0.3869505067 -0.8396731696 0.9811656796
N 0.9530656915 -0.6874914743 0.8957367105
C 1.3150793967 0.2009370443 -0.1407527821
C 2.5986802511 0.5214716724 -0.455092383
C 0.0469004521 0.5788815752 -0.6599370784
H -2.5602811024 -0.2843553794 -1.223785684
H -2.8918336343 -0.5994982495 0.4927990406
H -2.6562590448 1.0678217789 -0.0758109651
H -0.921715894 -1.4617563416 1.675730477
H 3.4302949505 0.0954666688 0.0878788125
H 1.6167187602 -1.1570203107 1.4815591768
H 2.8054067723 1.2091576919 -1.2600406906
H -0.2060279008 1.2351311997 -1.4717317416
