14
0
C 2.5966398 0.4062303361 -0.0101894377
N 1.4001626952 -0.3937969266 0.0732205519
C 0.2859100035 0.1831789816 -0.023678829
C -0.9906812867 -0.5577853193 0.0503452356
C -2.2790913523 0.2005885086 -0.071979389
N -0.9728119802 -1.8097076722 0.8243006977
N -0.9511691876 -1.9667403796 -0.3741811791
H 3.1738796123 0.2806209169 0.9078815701
H 2.3996489615 1.4757198843 -0.1649261357
H 3.2156327748 0.037003447 -0.830129381
H 0.195506774 1.2695481736 -0.1692984819
H -3.1303971231 -0.476935177 -0.0224783764
H -2.3810761478 0.931561151 0.7335818716
H -2.3263915435 0.7357120755 -1.0231727172
