16
0
C -1.6326516891 -0.5535332142 1.6826056789
C 0.551123984 -0.0249459089 -1.0948413583
C 0.3523353388 -1.1146071511 -1.8063107458
C 0.0543718735 1.3973069423 -1.0403022927
O 0.9296256198 1.6280946126 0.1016372452
C 1.3974511119 0.3302643865 0.0689318388
N 2.2261609776 -0.2583876343 0.793086746
H -1.2040332701 0.4431040477 1.7843757559
H -2.2365523709 -0.7793571797 2.5600660811
H -0.828184607 -1.2816586753 1.5917982349
H 0.8922279136 -2.0228189752 -1.5691132163
H -2.2587657055 -0.5946939268 0.7917160102
H -0.3454847754 -1.1367824863 -2.6343244841
H -0.9924634025 1.5333218493 -0.7663000943
H 0.3249085276 2.0404511511 -1.8782779117
H 2.5973144737 0.3519821622 1.5167265121
