14
0
C -1.8975737632 -0.9534342853 -0.5078665983
C -0.7210891819 -0.0841113613 -0.8966658581
O -0.400648653 0.8949820595 0.0840321444
C 2.2729148377 1.0216288351 0.4659735734
C 1.4698908377 0.3607847892 1.2826891056
O 0.1207089197 0.2136000138 1.2110105034
H -2.775488666 -0.3403416482 -0.3008201803
H -1.668199882 -1.5444020134 0.3785428782
H -2.1369188833 -1.6398467671 -1.322449856
H 0.1703446454 -0.680149036 -1.1177358162
H -0.9502335439 0.5250887936 -1.7744422093
H 3.3313094024 1.0327315219 0.6811129298
H 1.9072764862 1.5587168667 -0.3959430091
H 1.8141704441 -0.1718517686 2.1624083926
