19
0
C 2.3950419774 0.9844906583 0.643687235
C 1.8404619147 0.7934148193 -0.7584860352
O 0.6232004083 0.0832877116 -0.7892091375
C -1.8636029187 -2.4732066592 0.0984613246
C -1.7144434998 -1.2051953656 0.4441281486
C -1.734342416 -0.0461166647 -0.5045610014
C -0.4993786968 0.8306570578 -0.3965498124
H 3.3800873194 1.4532648464 0.5961998551
H 1.7552517347 1.6238111197 1.2542623535
H 2.4941809742 0.0200037198 1.144080927
H 2.5371243636 0.202128089 -1.3558108539
H 1.7206395522 1.765500648 -1.2589888059
H -2.0037467151 -2.7629702136 -0.9377002899
H -1.8453974269 -3.2679777844 0.8341192395
H -1.5636178282 -0.9571937238 1.4935280308
H -1.8339283909 -0.4037806745 -1.532291457
H -2.6054950522 0.5836926531 -0.2922228098
H -0.6070579676 1.714281976 -1.0429444011
H -0.3933563319 1.191834787 0.63656449
