14
0
C -1.6045386066 -1.3504587593 0.0481451992
C -0.8374548427 0.5031088986 -0.3146094491
C 0.4279227314 1.3251204448 -0.1086837092
O 1.2776843965 0.7832917374 0.8895883503
C 1.5390380255 -0.531694978 0.730837392
N 0.8945166781 -1.3663318162 0.0476096197
C -0.355371807 -0.9952786248 -0.5746196901
H -1.38036911 -1.501626924 1.1209697993
H -1.4777835818 0.6043487053 0.5729706091
H -1.4011516548 0.8683565897 -1.1679363274
H 0.1871358146 2.336283707 0.214466018
H 0.9835551448 1.3756354736 -1.0510443071
H 2.4200878961 -0.8254658856 1.2949245201
H -0.3017600841 -1.1518345684 -1.6516630249
