15
0
C 2.8877135762 0.343124692 -0.4399924518
C 1.5408637118 0.111601826 0.0678133063
C 0.4376674717 -0.0829429393 0.4955044434
C -0.9234761468 -0.3358856655 0.9678539413
C -1.6074200701 -1.3284843523 0.0399453593
O -2.265989821 -2.2534772578 0.4188557589
C -1.7660792899 0.9483801453 1.0104655566
H 2.9868118645 1.3560301425 -0.8326695321
H 3.1211047485 -0.3579302041 -1.2425507414
H 3.6265146156 0.2089935764 0.3513024432
H -0.8988749143 -0.791627158 1.9603217501
H -1.4748455199 -1.1169685964 -1.0419343426
H -1.8547848337 1.3861628268 0.0143946291
H -2.7653147871 0.7321115779 1.3904750386
H -1.2927656056 1.6838133863 1.660194841
