15
0
C 2.012252635 -0.4597487385 0.0523382169
C 1.120335941 0.7798054411 0.0654925181
C -0.3193984125 0.4561273446 -0.2340879417
O -0.8413075465 -0.3235905608 0.7254893816
N -1.0127794099 0.8152792875 -1.2292393328
C -2.1927283238 -0.7254905676 0.5494527165
H 1.9835498689 -0.9511062223 -0.9220338253
H 3.0476427579 -0.1892790359 0.2635787981
H 1.6880410866 -1.1791739183 0.8039268362
H 1.1625009596 1.2557014253 1.048566831
H 1.4688052782 1.5102414096 -0.666202098
H -0.4650069944 1.3960431697 -1.8528209736
H -2.309177371 -1.2835899569 -0.3803950623
H -2.4291796178 -1.3536516322 1.4054420885
H -2.851200851 0.143450555 0.5165398468
