12
0
N -2.1566391929 0.1667882335 -0.4148102457
C -0.7954728198 0.1899476681 -0.2322270026
C -0.0917544032 1.2921712355 -0.8690275696
N 1.2519495236 1.3421548661 -0.6299503804
C 1.8480935258 0.4391464891 0.1062802635
N 1.2113828838 -0.5873389106 0.667782408
C -0.1356681236 -0.7431312055 0.515092456
H -2.4522272613 0.7958726043 -1.1452052465
H -2.6455813854 -0.7094573758 -0.3675840795
H 1.7299484504 -1.2559632111 1.2125327659
H 2.9179884876 0.4948358139 0.2850650783
H -0.5787366849 -1.6024012075 1.0032025523
