11
0
N -2.2727338549 -1.0769492323 -0.1722753477
C -1.7391306461 -0.2461995915 0.6699791946
C -0.4442595043 0.2799505288 0.2762963139
O 2.0910640962 2.1366127684 -0.6508738108
C 2.8587053345 1.3421550245 -0.3023303696
O 3.6798376074 0.5958935629 0.0206393909
N 0.6931892388 -0.2621460773 0.4640327323
H -1.8469260974 -1.3562668261 -1.053559527
H -3.1622927952 -1.5059038616 0.0345893162
H -0.4616395182 1.2912853242 -0.1445088217
H 0.6024171392 -1.1804786201 0.8988299289
