8
0
O -1.1943113786 -0.029888098 0.2031237835
C -0.5171665751 -1.2512286244 0.013339444
C 1.1907903972 2.2235480069 -0.0502833533
O 1.9654356563 3.0034713892 -0.2727464967
H -0.5417858199 0.6707398464 0.270797042
H 0.1118333616 -1.5158557259 0.8715904268
H -1.2739795497 -2.0261303657 -0.1074120075
H 0.1071539082 -1.2444064286 -0.8882268387
