14
0
C -1.2837022816 0.264713624 -0.7194487693
C -1.0562284476 1.5271007098 -0.0814584711
C -0.7081618983 0.2534298274 0.7711038889
C 0.6032533273 -0.0848731666 0.7604251911
C 1.9239792022 -0.150248046 0.2190743913
O 1.4260360736 -0.906419485 1.3846254632
H -0.5243364023 0.0013518971 -1.4617340283
H -1.041264688 -2.3898659765 -0.5908389216
H -1.891414499 2.0089572645 0.4212681408
H -0.2399080631 2.2125354962 -0.3189149198
H -1.3327636764 -0.0514614327 1.5993809788
H -0.6607699518 -3.0328100216 -0.5528744859
H 2.1252280026 -0.769066047 -0.6477214414
H 2.6523103026 0.6138943565 0.4652829831
