12
0
C 1.0627276158 0.7767547429 1.0257454449
N 0.8033284045 0.4428977237 -0.3636685287
C -0.1956229781 -0.4309293268 -0.7270126728
N -0.0412639012 -1.2630884987 -1.6709748
C -1.5366393307 -0.2518268086 -0.0375681549
O -2.4172387613 -1.0559788727 -0.1488900576
H 1.8213690934 1.5571063194 1.0633434266
H 0.1686848112 1.1767103529 1.5035018562
H 1.4134982535 -0.0783692023 1.6139297145
H 1.6346166185 0.275321316 -0.9112366654
H -0.9186434951 -1.7503971681 -1.839944991
H -1.6835513306 0.6794134226 0.5391744281
