10
0
O 3.0047194682 0.1235510017 0.6288698523
C 1.856624388 0.3238530564 0.7071082525
N 0.7016410532 0.556662506 0.9043072968
C -0.5515964608 0.5558474241 0.1911858842
C -0.7639085293 -0.7048409737 -0.6297155502
H 0.0095226179 -0.8106702555 -1.3926501083
H -1.3442509477 0.6645082334 0.9320137261
H -0.5897753645 1.4422281239 -0.447339414
H -1.7328536592 -0.6668453452 -1.1303085761
H -0.7407625659 -1.5906347711 0.0063036367
