15
0
C -1.7613439555 -0.0348054365 -1.1984219933
C -1.1121526958 -0.862254803 -0.1365881972
O -1.107029281 -0.409025975 1.1718256582
C 1.6901826069 1.4383835018 1.1825617759
C 1.8991363148 0.5295772291 0.2413563763
C -0.5914625207 -2.0473136183 -0.3808201017
O -0.1405790104 -3.0950226964 -0.6048408054
H -2.8048421895 0.1608789943 -0.9400461245
H -1.2523236182 0.9282054191 -1.3026211911
H -1.735413048 -0.5386822326 -2.1656530108
H -0.3432599394 0.1746752748 1.2760584557
H 1.3138223509 2.4269487944 0.9442779293
H 1.9065428983 1.236060646 2.2258778727
H 1.6960168428 0.7346212781 -0.8035738221
H 2.2853162447 -0.4560763759 0.4753511779
