13
0
N -2.3815445177 -0.6138213284 -0.260596666
C -1.5752034405 -0.0197189643 0.5741526908
O 0.6934753404 1.4712655982 -0.690252328
C -0.268099188 -0.7452203743 0.6522881402
O 0.7803116646 0.0427153433 1.2010902485
C 1.3930939757 0.8918445788 0.3469498887
N 1.7435126985 0.4660842804 -0.9675133688
H -3.3167051762 -0.26252251 -0.3891645294
H -2.1361439742 -1.4142364226 -0.8425449543
H 0.0636460012 -1.179842909 -0.3016598095
H -0.4115303772 -1.5592152314 1.3697378773
H 2.0654281294 1.5411628303 0.9019649012
H 2.5444458638 1.011806109 -1.2851300909
