15
0
C 2.2865479429 -0.6577209887 0.0551244103
C 1.4812666591 0.5108757504 0.5759929844
C -0.3960945896 0.7840840844 -0.7740517386
O 0.0838553316 0.2949210843 0.3690236511
N -1.6800704336 0.4654361013 -0.8586892869
C -2.4614647273 -0.2964124999 0.1050839633
H 2.1525438615 -0.7549707031 -1.0235120865
H 3.3480600795 -0.5062020026 0.2608453125
H 1.9712414474 -1.5882351254 0.5301347596
H 1.6065397233 0.6307211443 1.6537150581
H 1.7625948389 1.4399134537 0.0775395347
H -2.1460623526 0.7983235427 -1.68211079
H -2.0368787386 -1.2909554822 0.2461098255
H -2.4805039608 0.2061749925 1.0727632804
H -3.4809230818 -0.3948863518 -0.263814878
