10
0
N 2.4097584072 -0.1994620248 1.1256913224
C 3.5689605479 -0.1530039638 1.0741093468
N 0.0714562162 -0.1187566324 -1.668327757
N 0.0404154429 1.0331800586 -1.3540069423
O -0.4486554903 -0.2865801219 1.1574431095
C -1.3674906355 -0.1020053374 0.395407939
C -1.1994004704 0.285796691 -1.0069129832
H 1.3981516532 -0.2353045959 1.1536620339
H -2.410988529 -0.2215185965 0.7327720549
H -2.0576881424 0.436996523 -1.6453031239
