13
0
C -1.8638243486 -1.436008423 0.2919983165
C -0.8959058023 -0.5013181663 0.9567813467
O 2.3318731395 -0.2729792954 -0.8441640835
C 1.8614786593 1.0201481682 -0.8386289316
O 2.915005308 0.7540280206 0.0251562385
C -0.1950928689 0.4009166969 0.3423002967
C 0.5111985655 1.2996244679 -0.2856885049
H -1.9135660152 -1.2566747931 -0.7809545531
H -2.8641861103 -1.3135351305 0.7127583356
H -1.5639250773 -2.4728856175 0.4571364243
H -0.7631028832 -0.5893933944 2.0322302915
H 2.1395060143 1.6172197349 -1.7083457893
H 0.1220044192 2.3023387317 -0.430479387
