16
0
C -2.7296686872 -0.3390214646 0.0340111995
C -1.277849012 -0.2821641135 -0.3751841677
O -0.5623412924 0.4521457336 0.6005294632
C 0.8094418378 0.5184891453 0.3425565828
C 1.5336958622 -0.7602622079 0.7144443961
O 2.6569999948 -1.0133386818 0.3810824049
H -2.8348148723 -0.832559039 1.0008628428
H -3.309264213 -0.8954314198 -0.7040988544
H -3.1435626119 0.6667536424 0.114027294
H -1.1652136112 0.204923775 -1.3538293603
H -0.8637090221 -1.296736126 -0.4676934488
H 1.2240879708 1.3172814891 0.9649031941
H 1.0312777582 0.7665730656 -0.703682333
H 0.9469769017 -1.4493654935 1.3593591947
H 4.2435129133 1.6721900506 -0.9687047213
H 3.9750120835 1.0325436447 -0.6933496866
