11
0
C -0.9889109149 0.7765902086 -0.0434056032
C 0.2151170214 -0.108846232 -0.3470214149
C 0.2892150792 -1.3464740961 0.5518622843
O -0.6252048904 -1.7157791521 1.2248524055
C 1.4857530254 0.6141683729 -0.2730128692
N 2.4858041646 1.1699819849 -0.1927433105
H -0.9182184642 1.1873024171 0.963131284
H -1.9005469231 0.185109717 -0.1042751744
H -1.0469821012 1.5997037031 -0.7540353717
H 0.1441234734 -0.5051532771 -1.3688027491
H 1.2494285297 -1.8960366462 0.5177875193
