17
0
C 2.0782939486 0.2022729738 -0.0250036286
C 1.0602494453 -0.5479488134 -0.865899629
C -0.3842145875 -0.3310900949 -0.4790936045
C -1.403349431 -1.0493331741 -1.324348619
O -1.2184647107 0.7265750585 2.8082153891
C -0.7342537303 0.4187420362 0.5299920505
C -1.0797496952 1.1879312659 1.522269281
H 3.0937370081 -0.0234043909 -0.3548184988
H 1.9928305256 -0.0694139825 1.0285441217
H 1.9285194711 1.2809523107 -0.0984247922
H 1.2570904192 -1.6255239201 -0.8211260069
H 1.1709117065 -0.2771427317 -1.9224750614
H -2.4176357109 -0.8441788431 -0.9871160979
H -1.3138088826 -0.7453258864 -2.3711267938
H -1.2351003285 -2.1292764927 -1.2871821655
H -1.4873588572 1.4538658601 3.369587351
H -1.2732845905 2.2463178246 1.369545704
