19
0
C -2.2657327078 -1.0281428705 0.3095979213
C -0.9798185137 -0.2431769025 0.2973090859
C -1.2037275501 1.2394589395 0.4020470328
C 0.1787611953 -0.8973518318 0.2107559744
O 2.2357354748 -1.1412987126 -0.959379448
C 1.6257525488 -0.4763269254 0.1483284616
C 1.9751989975 1.0015816296 0.117227717
H -2.9340097366 -0.6902721868 -0.488017455
H -2.0927204696 -2.0962817439 0.1818504248
H -2.800321094 -0.877824834 1.252350338
H 1.727777459 -0.923399104 -1.744807444
H -1.8284493453 1.4559322891 1.2732904507
H -1.7587631331 1.5937114709 -0.4716915529
H -0.2960621861 1.8250109354 0.4836859714
H 0.1069750464 -1.9817986672 0.1498024746
H 2.1221840077 -0.9188759069 1.0186047395
H 1.508749052 1.5066027653 -0.7316074524
H 3.0565388243 1.095647304 0.0131698343
H 1.6763801306 1.5077033515 1.0362219262
