14
0
C 2.9538990139 -0.0385664537 -0.7970219795
C 1.7947784716 -0.2233375408 -0.5512443902
C 0.4006522859 -0.3912703205 -0.2464573795
C -0.2998159761 0.8567746519 0.23714315
C -1.7781642903 0.7005266733 0.5488533459
C -0.1779753235 -1.5800899798 -0.399320665
H 3.9836322237 0.1143348416 -1.0181706473
H -1.9472453814 -0.0389590254 1.3343199632
H 0.2345745418 1.2153917558 1.122543553
H -0.1547589364 1.6329225865 -0.5207870283
H -2.192241656 1.6487442723 0.8938351688
H -2.3436413948 0.391558005 -0.3326724702
H 0.3870490154 -2.4330145627 -0.7510891383
H -1.2264755935 -1.7325159034 -0.1790824824
