8
0
C -0.8889401546 -0.3285266844 0.1123652977
C 0.2300476467 0.6575477915 0.0001185076
O 0.1456229449 1.8419515384 0.069372091
C 2.5194235669 -0.4881941188 -0.3835206345
N 1.4932513058 0.0441378584 -0.2109398936
H -1.8227345642 0.2008320491 0.2806482166
H -0.945936305 -0.9177319418 -0.8044449314
H -0.6874564405 -1.0193084923 0.9325073464
