12
0
C -1.6745143388 -0.4844885313 -0.432360879
C -0.7724940486 -0.2409358895 0.7484833755
O -0.5629146855 -1.0648948361 1.6173942675
C -0.3047863367 1.1470373916 0.9473996193
C 1.8638192857 0.401209501 0.2635403027
O 0.9255331712 1.4169111316 0.7208860535
H -1.3940523654 0.1321435189 -1.2897650373
H -1.6432302672 -1.5414387813 -0.6924967674
H -2.6971996162 -0.2193036013 -0.1571046828
H 2.0366711322 -0.3081560832 1.0691411695
H 1.4570304648 -0.1054814724 -0.611251285
H 2.7762096045 0.9318436521 0.0074558636
