15
0
C 2.1656951083 0.0997450198 0.2591110714
N 0.9421685602 -0.2832788052 -0.4709017798
C 0.3650015787 -1.6000916583 0.1107989414
C -0.9094478421 -1.2310277927 0.3555431296
C -1.2110542937 0.1578818093 0.0090437254
N -2.4339897018 0.728652627 0.2328236835
C -0.0999898258 0.7332554953 -0.4890494021
H 2.8598053073 -0.7368546116 0.2269543033
H 2.6040617333 0.9907229308 -0.1913463076
H 1.8865022518 0.3020078326 1.2907907525
H 1.2049280552 -0.5497772428 -1.4184132599
H -1.6505020185 -1.8964477912 0.7817825776
H -3.2097658971 0.0984333169 0.3258070444
H -2.6491307095 1.5880927048 -0.239345943
H 0.1065356937 1.7328221652 -0.8349615368
