12
0
N 1.8941894172 -0.0802658195 0.3683926636
C 0.8933821898 0.7694006542 -0.0972246991
O 1.1383223271 1.6440076017 -0.9100578582
C -0.4288379868 0.5343198651 0.4659224069
C -1.5149452145 0.2686257761 -0.468114759
N -0.9126718959 -0.8884669296 0.2527384059
H 2.8220844001 0.2427005094 0.1434113303
H 1.7882853859 -0.4012618123 1.316841224
H -0.3694033808 -1.5284101264 -0.3139103505
H -1.3421240142 0.2196575463 -1.5426236647
H -2.5449061828 0.4778976278 -0.1936797905
H -1.4327910451 -1.3328918926 0.9940450913
