11
0
O -1.9786864494 1.9326050301 0.0854534255
C -1.7616743868 1.0084240624 0.8164530748
N -0.6648986929 0.1684367395 0.7035777954
C 0.2834242194 0.2855482121 -0.2321065594
C 1.3530948655 -0.5952446184 -0.2785747753
C 1.3699243546 -1.5905531452 0.6960300556
H -2.414795505 0.7300062929 1.6572456751
H -0.4911963701 -0.6190144793 1.3373845621
H 0.143897383 1.1051188503 -0.93056815
H 2.0838930434 -0.4320610075 -1.0694429796
H 2.2517815384 -2.235329937 0.5766548757
