12
0
N -1.3208861439 -0.1295779943 -0.6041131842
C 0.5851205084 -0.3861102894 0.9570214177
O 0.9746766852 -0.6404287014 2.0480948095
C -0.7362139394 0.2984603624 0.6480188122
O 1.3568732724 1.1904818829 -1.2088199068
C 1.4569118978 0.0047959807 -1.2185084158
O 1.3244207802 -0.8007630038 -0.1395056047
H -1.8321016453 0.6121080913 -1.0551907176
H -1.9304193644 -0.9248594073 -0.4888899451
H -0.5135146629 1.365809846 0.6016684051
H -1.3605673329 0.1359349332 1.530719266
H 1.7378069448 -0.6022537004 -2.0867969361
