16
0
C -1.9328196398 0.5089194512 0.3322459853
C -0.5926854991 -0.1964557349 0.3299993995
O -0.8233174229 -1.549243278 0.6699927409
C 0.0982771068 -0.0892365502 -1.0258037643
C 1.432669104 -0.7715187495 -1.090631004
O 1.9189336251 -1.4090339729 -0.1916350269
H -2.3992859882 0.4209409422 1.31334114
H -1.8174775918 1.5683546127 0.0954501591
H -2.6003775108 0.0559256144 -0.4038745504
H 0.058844888 0.2675951642 1.0830000619
H 0.0392131096 -1.9622808933 0.7780182998
H 0.2510301662 0.9573251523 -1.3147722781
H -0.530816681 -0.5295984664 -1.8097558414
H 2.3974044779 2.1548511855 0.5116660485
H 1.9808755689 -0.6630709973 -2.0482280939
H 2.5447482869 1.4409975196 0.6677067243
