17
0
C -1.4971098426 -0.9452582456 0.5749221127
C -0.5312699957 -0.1753030557 -0.2629600203
C -0.9936245931 0.6467357752 -1.4206231245
N 0.7237089949 -0.2038531108 -0.010025343
C 2.0032361319 0.2097761451 -0.2303391937
C 1.7236067871 -0.8643985117 0.7842381962
H -2.0159018207 -1.7031578784 -0.0191157964
H -0.9897985441 -1.4448081661 1.3998570028
H -2.2628310175 -0.2818194289 0.9866025314
H 0.2331754376 2.5705824458 1.296102179
H -1.1150393311 0.0347473054 -2.3202299711
H -0.2630413539 1.4271643039 -1.6410711664
H -1.9576681648 1.1114954487 -1.2071004647
H 0.8468273385 2.2715894812 0.9846735505
H 2.4471326219 0.0016778558 -1.1981711079
H 1.8145259033 -1.9301541434 0.5698638623
H 1.768482448 -0.6065002205 1.8395977532
