17
0
C -2.1596276372 0.0493245547 0.0314437431
C -0.7256598478 0.4095738555 -0.0791749185
O -0.4477953754 1.7363109367 0.0157743222
C 0.9591456544 1.8061104331 0.4150886863
C 1.5632693957 0.5157716837 -0.0802767582
C 1.4443040396 -0.8312958702 0.6068422195
C 0.3622774655 -0.352773641 -0.277563231
H -2.7169169714 0.4705094527 -0.8087493612
H -2.5869022136 0.4623826463 0.9470572227
H -2.2773128511 -1.0321626768 0.0195933821
H -0.8607484808 -3.3023208848 -1.8149330368
H 1.3921150476 2.6836313373 -0.0606530452
H 0.9776024362 1.9390513877 1.5013758505
H 2.2803619822 0.5711640651 -0.8930461284
H 1.2380110844 -0.8754451877 1.6709910191
H 2.1230786649 -1.6018868123 0.2569592463
H -0.5718033934 -2.6672282799 -1.5465622126
