15
0
O 2.4972435505 0.4773948138 1.1450838265
C 1.8897116531 0.3174189967 -0.1131191941
C 0.5264698363 -0.336269445 -0.0007335544
O -0.3054071081 0.4415746912 0.863024381
C -1.6356263087 0.0698477544 0.55979221
C -1.5642644929 -0.3206724693 -0.9190204953
C -0.1827785227 -0.7473125061 -1.2098125947
H 1.8852698353 0.9633830521 1.7038205259
H 1.7737959631 1.2815882674 -0.6238275787
H 2.539454614 -0.314388819 -0.7168211717
H 0.6616734851 -1.3616836342 0.428850815
H -2.2928480553 0.9118292995 0.7744801322
H -1.5652576692 0.5919348605 -1.5489338054
H -2.3547644895 -0.9576706145 -1.3132097328
H -1.9463072909 -0.7865122476 1.1736772366
