19
0
C 3.2812315886 -0.3982093743 1.0382419533
C 2.2907856067 0.4239482918 0.2151222258
C 0.8744797086 0.0481802438 0.5274824786
O 0.0109032355 0.8325355944 0.8335614047
C -2.498034204 0.0072404434 -1.9378756963
C -2.9585324398 1.0039991902 -1.1997479159
O -1.9895759658 -1.228543336 1.2442505018
H 4.3064727301 -0.1550675085 0.7599806356
H 3.1655436955 -0.1988025484 2.1047266522
H 3.1370673008 -1.4688208081 0.8787370274
H 2.4446278935 0.2218621827 -0.8514364405
H 2.413757632 1.495696487 0.374847379
H 0.6347499061 -1.0334060891 0.4708003093
H -1.5000136745 -0.3951366547 1.2534610676
H -3.1450355361 -0.5712874793 -2.5875719664
H -1.4499201592 -0.270503593 -1.9210621531
H -4.0058023917 1.2843915238 -1.2153763869
H -2.304890716 1.5776498131 -0.5520930783
H -2.6097372105 -1.1209003787 0.5198720024
