11
0
O 2.2874377902 0.4714784344 0.1505426178
C 1.1661589391 -0.3203506174 -0.2153096889
C -0.1417137535 0.3052027696 0.187361652
O 0.0513058786 1.4513803941 0.7399188012
C -3.2079019931 -0.8527933047 -0.2084304671
N -4.2581553703 -1.2785789705 -0.3748914075
H 2.873293721 0.5957178189 -0.5955592074
H 1.110456065 -0.5028831319 -1.2934849789
H 1.2129594791 -1.2998459166 0.2742375104
H -2.2038971235 -0.4545837404 -0.0569975939
H 1.0172293674 1.6568032645 0.7685297624
