11
0
N -1.8663377081 -0.4427990133 0.295735584
C -0.5655480647 -0.3630611668 -0.0120474051
N 0.316914832 -1.3026533447 -0.1119181896
N 1.3457417418 -0.2489220973 -0.4754102777
C 1.590289599 0.858964313 0.4580044336
C 0.3280463875 0.8062113665 -0.3386494504
H -2.3675600869 0.3948811548 0.5246319611
H -2.2383206404 -1.3150089127 0.628115202
H 1.8739916484 -0.4135407085 -1.3187415586
H 1.4834442627 0.4870628719 1.4781204615
H 0.1040230289 1.5018995374 -1.1393657607
