19
0
C -1.0997598009 -1.9031636572 -0.3534459398
C -0.1928084852 -0.6748342301 -0.3301868299
C -0.6465951135 0.2947015137 0.7715703319
C -0.3481226567 1.7580325188 0.5302490628
O 1.0805713193 2.0119669576 0.5092100618
C 1.6940152346 2.5333588288 -0.4925543514
C 1.2654390261 -1.1042829764 -0.1697797494
H -2.1396191014 -1.6321801712 -0.5499141104
H -0.7860808778 -2.6103350977 -1.1237242686
H -1.0661412163 -2.4250958175 0.6074663208
H -0.2962165607 -0.1616828997 -1.2950353441
H -0.2243960045 -0.0098439412 1.7343780427
H -1.7343023317 0.2325677109 0.8828087382
H -0.7454828075 2.3724691277 1.3393940268
H -0.7556335984 2.1059292601 -0.4250972838
H 0.9172673633 2.7418423055 -1.2817640766
H 1.3976150867 -1.6434250495 0.7728445705
H 1.5579043381 -1.7768624316 -0.9786796673
H 1.9548111863 -0.261018951 -0.1683825342
