17
0
C -1.7931301475 0.0323118263 0.1087929757
C -0.8106124524 -0.5101054175 -0.9330238369
O -0.6289291693 0.3696615452 -2.0061967593
C 0.4593985979 -0.945668054 -0.24287863
C 1.569288942 -0.2582779748 0.0496719405
C 1.8426775346 1.1656303324 -0.1898116934
O 1.0785631015 1.9865132263 -0.648070387
H -1.9852877889 -0.6966683501 0.8990246983
H -1.3924990301 0.9397318013 0.5647487329
H -2.7356698689 0.2739225792 -0.3826226115
H -1.2442334849 -1.4114292354 -1.3760773244
H -0.1888065254 1.1637712665 -1.6651180728
H 0.1910312852 -0.3527652141 2.8235369937
H 0.4448212024 -1.9816639296 0.0889816698
H 2.3739718363 -0.7816109461 0.5561457923
H 0.0577772942 -0.4650237796 3.5483829903
H 2.852971673 1.4909863239 0.1203875217
