12
0
O 2.9618461702 0.3926798737 0.5995947294
C 2.1715248001 0.1309258849 -0.2639819433
C 0.7377692809 0.5022428888 -0.2099532657
C 0.0012704826 0.7476334868 -1.4399317972
N -0.2178301638 -0.3953624017 -1.0167066551
C -2.1050970753 -0.8955290402 1.2419317277
O -2.0030748858 0.2211693976 1.6642056888
H 2.4701807085 -0.4248200926 -1.179405836
H 0.3666937868 0.8835736871 0.7363384028
H -0.2878787598 1.4101488767 -2.2428914265
H -1.3617072835 -1.6795431686 1.4738235417
H -2.9495400607 -1.2001963925 0.5965748331
