12
0
C -0.5159915788 1.6373638116 0.5969065787
C -0.2088036874 0.2519259765 0.1330846582
C -1.0872770952 -0.6914084269 -0.2733152046
O -0.4512562662 -1.8348319369 -0.6255325922
C 1.0824066169 -0.3656565044 0.0206906288
C 0.8677135934 -1.6162835221 -0.4396897058
H -0.174678922 1.7955426737 1.6219374024
H -0.0251056295 2.3819759695 -0.0328107725
H -1.5890061523 1.8298262914 0.5685650506
H 2.0383430872 0.0746122975 0.2556305909
H -2.1614923654 -0.6995085828 -0.3633192614
H 1.5213843994 -2.4389950471 -0.676552373
