14
0
C 1.5123850769 0.9309080939 -0.0965615734
C 0.7961748504 -0.2555015561 -0.6660499677
O -1.5769700787 -2.1769998736 1.925274408
C -1.3755220796 -1.0154764734 1.7188282104
C -0.3834945974 -0.2441461547 -1.2767836236
O -1.1819361324 0.8304661022 -1.5025792093
H 0.8913018574 1.8296816115 -0.051791872
H 1.8492232935 0.7309207905 0.9230057107
H 2.3994784927 1.181843425 -0.6837108794
H 1.2848181111 -1.2190197738 -0.5881542952
H -0.4973996938 -0.4905487147 2.1420138686
H -2.0558455728 -0.3998251607 1.101519342
H -0.8376302864 -1.1502648386 -1.6581065333
H -0.7352882406 1.6315475225 -1.2170755858
