15
0
C 0.7709024616 -0.521042403 0.9697904891
C 0.7692846513 0.965824273 0.8106162669
C -0.0632443548 1.4196102918 -0.4168777913
O -0.58318767 0.2801053603 -1.0972146506
C -1.2370350728 0.7330118657 0.0861472663
C -0.4585835831 0.2475949983 1.3369974108
O 0.429747667 -2.2084501188 -2.1942982814
H 0.7947223141 -1.1835128405 0.1157953967
H -0.3339721366 -2.7854667572 -2.2169967336
H 1.3404561047 -0.8667599711 1.8236816107
H 1.4365884874 1.6220640657 1.348883989
H 0.0479986079 2.3314192763 -0.9865070206
H -2.291148526 0.9623247299 0.0154840411
H -0.8690766037 0.2748064172 2.3353540605
H 0.0845836529 -1.3433721877 -1.9383180537
