18
0
C -2.345635935 -0.4874612566 -0.2755382932
C -2.1181893622 0.9113194429 -0.8316427525
C 0.9620280982 0.7128705399 1.2099465252
O 0.1355863288 0.1492409253 2.0388052504
C 1.4740905113 -0.242327881 0.1799866628
C 2.9585109788 -0.0559414033 -0.1149543819
H -3.1684767135 -0.9914653005 -0.7859096886
H -1.459562893 -1.1164614733 -0.3982837587
H -2.5893340111 -0.4543343669 0.7883872386
H -1.8439049888 0.8793861015 -1.8882412261
H -3.0198893183 1.5198878854 -0.7449940614
H -1.3225130678 1.4333662274 -0.2953550004
H 2.20567e-05 -0.8064817314 1.8653083064
H 1.240020062 -1.296801026 0.4213112344
H 0.8925155334 0.0159320773 -0.7165139299
H 3.2723060734 -0.6907839794 -0.9442472487
H 3.164768517 0.9828549642 -0.3719219566
H 3.5655361301 -0.3109857455 0.7549400805
