15
0
C 1.8140736805 0.5155435718 0.5336487935
C 2.0930316073 -0.5453163706 -0.4848839223
O 1.2524739404 -1.1430254457 -1.1016058406
C -1.8602719518 -0.844430439 0.6275795732
C -2.4449542707 0.3406811632 0.6865732946
H 2.2451614165 1.4595912974 0.1885250293
H 2.3151200784 0.2620373703 1.4712087341
H 0.7441869999 0.6318977075 0.6981234605
H -0.5524695876 1.4488990327 -2.3069972407
H 3.166806428 -0.7650769842 -0.6617140135
H -2.0750672228 -1.61540953 1.3595017577
H -1.1429680927 -1.091119742 -0.1478256168
H -3.1603677123 0.5872103601 1.4631316029
H -2.2367766469 1.1113087115 -0.0474017294
H -0.2789306661 0.8019462967 -2.0552868825
