13
0
O 0.9012422234 -0.0299082555 2.5369859097
C 0.9604743874 -0.297186993 1.254830839
C -0.8667611473 -1.1015510202 -1.1598908245
N -0.310665288 0.0416895331 -0.7886970117
C -0.2811774283 0.2848727419 0.6523954781
C 0.2957252805 0.9561906547 -1.5302367073
H 1.6882392156 -0.3927046998 2.9563143559
H -0.8472455501 -1.3780436875 -2.2016056676
H -1.2941881282 -1.738414665 -0.4066483016
H -0.3252316064 1.3632524095 0.8303470525
H -1.171343356 -0.161415343 1.1049385542
H 0.3857556903 0.7921072953 -2.5917945339
H 0.7112487071 1.8226220295 -1.0482721428
