15
0
C -1.6907139801 1.5432730293 -1.1730359815
C -1.8394827189 0.0705714807 -1.4980462487
C -0.6905997006 0.4511660642 -1.0542429551
N 0.6288523277 0.2113044228 -0.7723784218
C 0.9974052923 -0.985276873 -0.047195446
C 1.1025921434 0.3536435259 0.5903812622
H -1.599983198 2.2685855788 -1.9831599237
H -2.1560206942 1.9497654373 -0.2739185648
H 1.5995533078 -1.9922085175 3.4918759056
H -2.494397496 -0.6773413523 -1.9045105401
H 1.5798153385 -1.6201702592 2.8465801238
H 0.1910905896 -1.6334998935 0.279053292
H 1.8901480309 -1.4865111457 -0.4006857432
H 2.0696199884 0.8291972291 0.6988357536
H 0.3690087694 0.6019442732 1.3497434878
