11
0
C -1.500232804 -0.7918014453 1.0288455793
C -0.3769092568 0.2079057317 1.0506407485
C 1.8026801256 0.5545472995 -1.7446741696
O 1.7188334984 -0.4121276127 -2.4397446767
C 0.2160790739 0.6436645359 -0.023087609
N 0.7291948242 1.1060714001 -1.0272443098
H -2.3989480438 -0.3707477853 1.4837018456
H -1.7413098773 -1.0894743256 0.0092442448
H -1.2301916446 -1.6885812497 1.5895648933
H -0.0201091592 0.5969443961 1.9975365805
H 2.7154382638 1.1657050554 -1.6595601268
