10
0
C 1.1729724066 0.9793897905 -0.040538966
C 1.5282309338 -0.4106622555 -0.0986168905
N 0.4105108922 -1.1594734835 -0.0537407418
C -0.8698015136 -0.7136264683 0.033728337
C -1.0700319593 0.6283007257 0.0826953913
N -0.0334623774 1.4899404191 0.0445757053
H 1.9821845214 1.7030673104 -0.0698638322
H 0.5396394424 -2.1612473323 -0.0893973251
H -1.6637875957 -1.4477007634 0.0612656391
H -2.0669777504 1.0454990573 0.1529966829
