12
0
C 2.048520466 -0.3387011608 0.1034664983
C 0.5665104557 -0.2407578072 0.0885964226
N -0.2110997969 -1.2190699513 0.4821691733
N -1.4561882711 -0.7021602702 0.2976831383
C -1.3492313346 0.535375594 -0.1884906743
O -2.4276773263 1.2664717534 -0.4618887351
N -0.0991599745 0.8775968764 -0.3393643598
H 2.447865129 -0.2034086113 -0.9025674387
H 2.3511397197 -1.3137762696 0.4801960979
H 2.4744296367 0.4396782355 0.7377633478
H -2.2815294765 -1.2305553226 0.5120732503
H -2.1201602273 2.1128159335 -0.8015857206
