14
0
C -1.1077400804 -0.8132065328 -0.6345140769
C -0.8191596049 0.6317662751 -0.9789435233
C -0.3827884152 1.6212737732 0.0597937713
C 0.5318854763 1.2465087964 -0.7649920168
C 2.3515376108 -1.6684587098 0.5102670936
O 2.8048902726 -1.6130501643 -0.5163160882
H -0.5334170022 -1.1263062847 0.2404099336
H -2.1671503927 -0.9608677946 -0.4095213286
H -0.8519840573 -1.4779216466 -1.4642093506
H -1.4158992315 1.0039117561 -1.8142045423
H 0.2392697179 -0.0114767064 3.3279109767
H -0.6768805628 2.2099597644 0.9112295353
H 1.5526762611 1.2995728774 -1.1019575464
H 0.5483460083 -0.2734964032 2.7025181628
