16
0
O -1.8481544868 -0.2028120601 0.7691944941
C -1.4390221361 -0.2258234836 -0.5299245169
C -1.4047091481 -1.3290067302 -1.2711988368
C 1.7158145361 -0.1746109811 1.0368519502
C 2.7896485671 0.4974591375 1.416011551
C -1.0355160993 1.1353418949 -0.9855205341
H -2.113171475 -1.0873047397 1.0340025442
H -1.8639797263 1.8341269468 -0.8553182185
H -1.7098431835 -2.2919963514 -0.8776058318
H -1.0723524739 -1.2878325307 -2.2977440142
H 1.7036149034 -0.7680008591 0.1292264933
H 0.7959261075 -0.1534551415 1.6106186644
H 2.7968423906 1.0919028315 2.3227522006
H 3.7069038118 0.4805529228 0.8381868554
H -0.1996204892 1.4971663363 -0.3827320366
H -0.7381650983 1.1227278076 -2.0319807646
