15
0
C 2.2650364248 0.2255844902 0.1651583553
C 0.9924249311 0.0332701096 -0.1273052749
C 0.1819123143 -1.1657611323 -0.581375978
C -1.0766781417 -0.2513599292 -0.6698597744
C -1.803875406 -0.0761906878 0.6382082142
C -1.0610210287 0.9577293959 1.0336341986
C -0.2035751036 0.9700741396 -0.2133254444
H 2.6399630533 1.2116531921 0.4152100705
H 2.9765688947 -0.592339771 0.1628942691
H 0.5092398441 -1.5369326401 -1.5542853159
H 0.1107658181 -2.0078988109 0.1079803737
H -1.6361851133 -0.25238465 -1.6028656983
H -2.5801365102 -0.6593419583 1.1197470019
H -1.0046676239 1.5291623685 1.9522103023
H -0.105120353 1.8888748836 -0.7894732996
