17
0
C -2.0579674449 -0.5166903045 0.0277871736
C -1.7330527133 0.54765964 -0.9780818159
C -0.7661242673 -0.2524274743 -0.6937410691
C 0.6178858418 -0.736336568 -0.863489224
C 1.4508855088 -0.6725417008 0.4130102616
C 1.30683231 0.438239728 1.4063805797
C 0.841176948 -0.7025754689 1.7787003049
H -2.673448684 -1.3675788532 -0.2670801953
H -2.1512386429 -0.2549274035 1.0818613953
H -2.1186083088 1.3841131626 -1.5336943017
H 0.9806293718 3.061892214 -1.059196988
H 0.5767947781 -1.7771560775 -1.2041930931
H 1.1126222932 -0.1633448181 -1.6529928495
H 2.4367586467 -1.1211657869 0.2780368756
H 0.483494261 2.5333792644 -0.8863114278
H 1.4799441438 1.4800638861 1.6102915757
H 0.3402209582 -1.3025584396 2.5177347982
