13
0
O -0.8729067396 0.4841120163 1.5681815646
C -1.4692868351 -0.1314784652 0.7217151484
C -0.9218213814 -0.4348875081 -0.6480737766
C 0.5710834442 -0.666356753 -0.7013103859
O 1.26872901 -0.0097131797 -1.7542823763
C 1.5287943895 0.4060832386 -0.4378349317
O 1.1134063009 1.6650284101 -0.0936492745
H 0.5031056742 1.5680293222 0.6512109964
H -2.5027467382 -0.473733475 0.9207795313
H -1.4621218213 -1.2812985392 -1.0764876563
H -1.1632925156 0.4363214538 -1.2675851169
H 0.8842604298 -1.6938056893 -0.5276938407
H 2.5332117826 0.1604281685 -0.0975278817
