14
0
C 1.7838120202 1.5709186018 -0.2684812687
C 0.9710049221 0.6665639955 0.2537981839
C -0.5250766471 0.7482411234 0.2175999986
C -1.1822080036 -0.4678290106 -0.4099803948
O -1.0140349966 -1.6087423847 0.4614859348
C -0.3980636046 -2.6346544058 -0.021650607
H 1.4029138029 2.4560040917 -0.7680540144
H 2.8599949017 1.4628761747 -0.2133197917
H 1.3948842991 -0.2050281981 0.7456189305
H -0.8365278294 1.6302381118 -0.3478420982
H -0.9199522306 0.8631051106 1.232426375
H -0.7498752672 -0.7307201063 -1.3766282235
H -2.2590055966 -0.321515104 -0.5051488876
H -0.3997377705 -3.3438949999 0.8382968628
