10
0
O -1.4412663669 2.320407446 -0.9912801573
C -1.2955051455 1.2506828306 -0.5823998482
C -1.1473585269 0.0344580711 -0.1126365147
C 0.1601872448 -0.6691845488 -0.1866250834
O 1.2456555164 0.0858211201 -0.6828892704
C 1.2918246435 -0.3247511512 0.6765912069
H -2.0205421922 -0.4428741848 0.3099033874
H 1.1672000293 0.471244864 1.4043935034
H 0.1087368904 -1.6861154798 -0.570502354
H 2.0462299072 -1.0722039672 0.9045051305
