14
0
C -2.387971473 0.700078433 -0.0848466182
C -0.7574950137 -1.1450223829 0.4328332864
C -1.0195246199 0.090432514 0.0191979122
C 3.1780817864 -0.3540839588 -0.0506029453
O 2.6803145214 -1.2633216694 0.5527075262
C 0.0813275285 0.9351780572 -0.3692365777
N 0.9476243405 1.621321359 -0.6845587132
H -2.4603060281 1.596165551 0.5342266693
H -3.1443763397 -0.0132394328 0.2392963958
H -2.6024322657 0.9948266002 -1.1138807039
H -1.5658497162 -1.8024054492 0.7298854957
H 0.2546656643 -1.5267280601 0.4854011832
H 3.1677311076 -0.3079919679 -1.1540213625
H 3.6728715076 0.4877084068 0.4657564521
