12
0
O 0.7281090624 -2.4528690722 0.5697445325
C 0.829261355 -1.1997517335 0.2120649032
C -0.4471108498 -0.5184895596 0.5874542248
C -0.8325911524 0.5993667331 -0.3729651415
O -1.9204225741 0.6022702986 -0.8880357389
C 0.1895168188 1.6744572427 -0.6196389513
H 1.555204763 -2.8974505378 0.3531259418
H 1.1258584099 1.2229853701 -0.9513224508
H -0.1975761572 -0.0444804723 1.5496872207
H -1.2931415499 -1.1943282042 0.7397115489
H -0.1848122085 2.3778369552 -1.3597665841
H 0.4025890828 2.2015709797 0.3139434945
