11
0
N -1.9513640929 0.505452034 -0.5052207038
C -0.7053252633 -0.024734755 -0.2462499915
O -0.024334888 0.8846101319 0.5538940183
C -0.2156153384 -1.2009377884 -0.614082821
C 1.1903171048 0.6127822777 0.9237938284
C 2.3088448625 0.4230641813 1.2971678517
H -1.9614756316 1.5076447894 -0.6080627274
H -2.4593781342 0.028568177 -1.2298482988
H 0.7471151568 -1.5375673261 -0.2627589785
H -0.7961914916 -1.8457663306 -1.2566095262
H 3.3038167159 0.2535536087 1.6297413487
