10
0
N -0.1379958016 0.3776617315 -1.2269775044
C -0.355199309 0.8497155804 -2.3128391909
O -0.6721792499 1.2428988982 -3.3601609535
C 1.4381093887 -0.08122418 1.7496971946
O 1.8875249827 0.5257149188 0.814490974
C -2.0477031054 -1.3494030188 0.7329135099
O -2.9001969283 -1.5333139428 0.0262730414
H 0.6755830999 0.5246197772 -0.6328356531
H 2.0012548914 -0.1660344776 2.6948028177
H 0.4515120313 -0.573422287 1.7036337644
