13
0
O -3.0505435151 -1.6977307291 0.0608181442
C -2.0054020381 -1.1841539452 -0.2148823809
C -0.1275300433 1.1419839373 1.0666607674
N 0.5490421374 0.582817561 0.1190264108
C 0.8388402304 0.2986511648 -1.1379638217
C 1.7795674551 -0.1615645487 -0.0897434055
H -1.0339907649 -1.6193141346 0.0879673423
H 0.1348528956 0.9214864526 2.0894053321
H -0.9338490859 1.8147045266 0.8121399358
H 0.9028974612 0.9876614871 -1.964827524
H -1.9406600437 -0.2482758449 -0.8022161098
H 1.7787272922 -1.2086588547 0.2040466688
H 2.6750180191 0.3956629278 0.1908926403
