14
0
C -0.6425830597 -1.4348124465 1.0070827097
C 0.3053698957 -0.5260965191 0.8563391183
C 0.3186629527 0.7307569536 0.0973402475
N -0.735092391 1.1694347311 -0.6134747302
C 1.5623816414 1.257327001 0.2692159432
C 2.35063835 0.4048681632 1.116555747
O 1.5468557627 -0.6434876107 1.4382143019
H -1.6075046482 -1.3275056612 0.5297316808
H -1.2300454064 -1.6290947097 -2.8170134032
H -0.4671363138 -2.3152905886 1.6096937005
H -0.7021257237 2.0720760459 -1.0485456618
H -1.6341467398 0.7348049615 -0.5247856689
H 1.9341622348 2.1808239757 -0.1483962117
H -0.9256605547 -1.0147362965 -2.5245927732
