15
0
C -2.1179482532 -0.2725244787 0.3867044749
C -0.911425028 -0.4374549107 0.9069008184
C 0.2999955997 -0.8807395737 0.1468904384
C 1.4267497792 0.1348918204 0.2218438039
O 2.5498276514 -0.4093465617 -0.4447683094
H -2.3121753764 -0.4623211444 -0.6640399146
H -2.9574555652 0.0479803164 0.9915971957
H -1.0009610481 2.1280152204 -2.2454966226
H -1.0547118355 1.7755973237 -1.5905878542
H -0.7659142933 -0.2395251633 1.967448551
H 0.0494520234 -1.0636820596 -0.9007078619
H 0.6735390883 -1.8236333225 0.5594723947
H 1.1069706335 1.0748280703 -0.24572892
H 1.6620020844 0.3489535812 1.2735290501
H 3.2567785395 0.236715882 -0.4405252444
