14
0
C 1.0803983932 0.1688069825 -0.6910201042
C 0.3667274677 0.6557691578 0.5809196841
C -1.0885212487 0.3433813408 0.2643454234
C -0.9717074413 -0.9146334117 -0.6100916499
C 0.3167655339 -0.9340857069 -1.3259507345
O 0.7350683621 -0.1254483734 1.7089202158
H 0.9655021623 0.9276288602 -1.4887144639
H 2.1569360843 0.0015519708 -0.6084880965
H 0.5373911862 1.7183421637 0.786986998
H -1.6755859685 0.2047369622 1.1717078919
H -1.532909016 1.1628122968 -0.3062689435
H -0.7639738396 -1.7921846309 0.0364230134
H -1.8399905169 -1.1995069248 -1.2044682554
H 1.6809528415 -0.047835687 1.8450300213
