16
0
C -0.6139902058 -0.7189793267 1.2541992242
C -0.3131232589 0.2415107315 0.1074791739
C 1.0759877021 0.8118678729 0.2394720707
C 1.3617726936 2.0955792172 0.3872970127
C -0.7583490772 -1.6320105002 -1.540419773
C -0.4672470757 -0.3703673622 -1.2633181003
H -0.5317501751 -0.2005070495 2.210165739
H -1.6230019232 -1.1277968029 1.1732727539
H 0.0894844134 -1.5551855974 1.2664648559
H -1.0156776748 1.0816751302 0.1651827183
H 0.5809509388 2.8484560095 0.4268903534
H 1.8836010299 0.0828018926 0.2010511109
H 2.3839904991 2.4426693359 0.4767414651
H -0.9324785465 -2.371285955 -0.7672943024
H -0.8377444959 -1.9730250512 -2.5654221988
H -0.2993788437 0.3226084554 -2.0845601034
