12
0
O -1.6105742426 2.4589886832 -0.8702796918
C -1.4937146906 1.4164079381 -0.3910601799
C -1.3945799891 0.2267075326 0.154964414
C -0.3987199707 -0.7982841779 -0.3234012088
N 0.8542110301 -0.8093357144 0.4118106011
C 1.7922213434 0.1390923868 0.1876707339
O 1.7114509522 0.9839607408 -0.6741786333
H 0.946617718 -1.3901881205 1.2258113933
H -2.0353197396 0.037807894 1.0055302456
H -0.1599033387 -0.6249040769 -1.3717340731
H -0.8378814087 -1.792838945 -0.2494527722
H 2.6597813364 0.0601708591 0.8659951713
