11
0
O 2.0592414964 -0.9653092008 1.1606427332
C 1.1788889873 -0.6179378072 0.4269479442
C 0.981558381 0.7908420188 -0.0634089773
C -0.4308699442 1.2972334284 -0.0542288915
N -1.2900923051 0.2886756727 -0.0981870803
C -0.9527715111 -1.075205886 -0.2214140721
N 0.2004816115 -1.5463870757 -0.0183345767
H 1.2623849922 0.8411975888 -1.1274107761
H 1.6540721634 1.4744618165 0.4521064466
H -2.2746275696 0.5100997847 -0.1385859419
H -1.7685273019 -1.7233953402 -0.539614808
