19
0
C 2.2384916703 0.4468779964 1.2012417081
C 0.8245498392 0.5029331342 0.6424012971
C 0.4699743986 -0.7400054655 -0.1766357525
O 0.5695857084 -1.9258179811 0.5901015615
C -0.9015469312 -0.6191993551 -0.7880140915
C -1.1499938307 -0.4172162157 -2.0746559984
O -1.8608846915 -0.7236437831 0.1759718517
H 2.3715031203 -0.4314747164 1.8333279691
H 2.9763671186 0.3919426141 0.3969634719
H 2.4597030362 1.3335436065 1.7974651887
H 0.0975488063 0.6059586565 1.4542848499
H 0.7023043093 1.3809125808 0.0010419968
H 1.1919323148 -0.8532063123 -0.9884243153
H -0.1870990667 -1.9525783228 1.1824342947
H -2.1723586484 1.9749801525 0.1897796124
H -2.158089291 -0.2998877141 -2.4556384981
H -2.5291699126 2.6292627572 0.168694785
H -0.3351891045 -0.3636120459 -2.781606221
H -2.7318888456 -0.7120435865 -0.2275487102
