13
0
O 2.4373191477 -0.9662681093 -0.3261473116
C 1.698129981 0.1269364972 -0.6207439226
N 0.4435795104 0.118050538 -0.3151383099
C -0.5974140341 1.1529797756 -0.4143215453
C -1.606026296 0.1134612486 0.1327944112
C -0.3960351295 -0.7787063224 0.3037642033
H 2.1877797743 0.9943706752 -1.0316143268
H -0.3876994119 2.0077709346 0.2268533201
H -0.7516078069 1.4741287054 -1.4433002466
H -2.1325531632 0.4214150479 1.0388980448
H -2.3475533372 -0.189450955 -0.6142168401
H -0.2877199925 -1.847450962 0.1788319095
H 2.0574177576 -1.3775560738 0.4664786142
