15
0
O 2.6307001054 -0.3833532549 -0.4371892707
C 1.2816860506 -0.5145361226 -0.0753999006
C 0.5501017321 0.8217824282 -0.0044293727
C -0.87330706 0.4248388906 -0.3617364217
C -1.7872281061 0.1085974394 0.8009411537
C 0.4876527556 -1.3568704684 -1.0546240322
O -0.6763152844 -0.8202333473 -1.1557589993
H 2.8544233953 -1.1558230899 -0.9656644468
H 1.190848608 -1.0544201142 0.884416215
H 0.6132116278 1.2978883773 0.9728635671
H 0.9745501491 1.495106072 -0.7499618396
H -1.3571814512 1.1159827405 -1.051315395
H -2.0239386717 1.0237599053 1.3457494511
H -2.7199997099 -0.3287642271 0.444509415
H -1.3183161406 -0.5919562289 1.4945598765
