19
0
C 2.6394978853 -1.385756914 0.7084681658
O 1.3891778234 -1.1171626192 0.4549416538
C 0.5690128187 -0.3133790988 1.0286837571
C -0.3078210295 1.731692097 -1.1426927231
C -1.1111690457 1.2723155645 0.0670482109
C -0.8246285311 -0.1778712254 0.5082804749
C -1.1374181304 -1.195701263 -0.5840923478
H 3.0839344401 -2.1264076064 0.0691032894
H 3.1309097868 -0.8893081399 1.5332744009
H 0.7640091494 1.5964535868 -0.9777341151
H 0.9398320282 0.2688527773 1.8682036732
H -0.4831103198 2.7891911646 -1.3469972884
H -0.5779941967 1.1755376489 -2.0420976859
H -2.1824113747 1.3672170908 -0.1386159592
H -0.9047330674 1.9366796 0.9122701482
H -1.5066501876 -0.3766742832 1.3467736806
H -2.1586942216 -1.0565114806 -0.9436075583
H -0.4622817649 -1.0976973499 -1.4349753591
H -1.0447290624 -2.2154895493 -0.2086044178
