10
0
O -1.2940697374 -0.1883807856 1.3815464842
C -0.8905013787 0.4222233616 0.1935081876
C 0.3641068592 -0.2600298665 -0.3933001608
C 0.0575685288 -0.9848170891 -1.4166917876
C 1.6896291433 0.0072974509 0.2287735894
O 1.850018902 0.8690912619 1.044570781
H -1.6998624315 -1.0340449599 1.17883122
H -0.5792151445 1.4389425033 0.4373191476
H -1.6903204182 0.4706090866 -0.5495965382
H 2.5187196769 -0.6295719631 -0.1158219231
