16
0
C -1.4026464585 -1.286931982 -0.0062790015
C -0.3986010592 -0.2478212656 -0.4510859633
C -0.6600756074 1.2481691237 -0.1742209106
C 0.8402477059 1.4064517065 0.1417267144
C 0.9217516739 -0.1161608834 0.3496387104
N 2.062540442 -0.7703569247 -0.2938818355
O 2.6061440929 -1.5931877014 0.3813628925
H -2.3243367633 -1.2107515137 -0.5873063266
H -1.6586170187 -1.1563060213 1.0478835883
H -1.0085445208 -2.2974628053 -0.1343854523
H -0.1412086188 -0.3859381428 -1.5050393665
H -1.075199452 1.8463500059 -0.9846141428
H -1.2788289569 1.383839023 0.7151393905
H 1.130655755 2.0325662429 0.9835624477
H 1.4153683957 1.6973100402 -0.7384557106
H 0.83609439 -0.4425579018 1.3895569659
