12
0
C 1.6042165097 0.0822304076 -0.220647852
C 1.2581882885 -0.8737664775 0.8557523827
C 0.5418357314 0.4369035957 0.7450171278
C -0.9108910523 0.33197269 0.3917613115
O -1.3130976933 0.8061071017 -0.8802169258
C -1.4225469183 -0.5836734139 -0.6246126156
H 1.3764225157 -0.2191171787 -1.2394149381
H 2.5664225698 0.5755970145 -0.1262985399
H -0.7413376847 -1.2161183023 -1.1876388761
H 0.7760328827 1.1800034583 1.4998026578
H -1.5838494545 0.6000642256 1.2016155619
H -2.4344596949 -0.9664711209 -0.5341252943
