14
0
C -2.1045772292 -0.3995362756 -0.5219630864
C -0.7045941237 -0.337346557 0.0359365776
O -0.5166342368 0.9312863762 0.6359873367
C 0.7249731274 1.1254332257 1.1790248869
C 1.7142359456 0.2575184252 1.1810435042
O 2.6175252909 -0.4785330295 1.1995210243
H -2.2529869059 0.3756480949 -1.2744255955
H -2.8401884368 -0.25750192 0.2703376585
H -2.2781895121 -1.3710197775 -0.9870190253
H -0.5458170031 -1.1214046026 0.7895028642
H 0.0421324797 -0.4784843258 -0.7577008724
H 0.8888291225 2.0845824661 1.6463164351
H 2.5496166423 -0.194411958 -2.2504547609
H 2.8809838394 -0.241671142 -1.5843749471
