15
0
C -1.002108258 0.3845086097 -0.1585462236
C -0.9842856986 -1.0457323587 -0.7349306731
C 0.5529831377 -1.0371205416 -0.6114476917
C 0.4405211815 0.1772132604 0.3439002841
O 0.5357917504 -0.2781004133 1.6769247398
C 1.4404747732 1.2834908977 0.0935411545
O 1.3388902902 2.1033905027 -0.776916035
H 0.1003224898 0.3538769619 2.2535542603
H -1.7426844089 0.6183210765 0.6074003162
H -1.0260971745 1.15002351 -0.9338969126
H -1.3981067026 -1.1792665361 -1.73318742
H -1.4413563951 -1.7688359327 -0.0610118771
H 1.0382600262 -1.9069908853 -0.1722557284
H 1.0456353768 -0.7675271955 -1.5457853496
H 2.3137826117 1.2710970443 0.7796781566
