16
0
C 2.253475258 0.921751193 0.5070022099
C 1.3233314342 0.2033708046 -0.4826364724
C 0.2336459315 -0.3740865949 0.3613547403
C -2.1858505556 -1.4024814675 -0.4017397015
C -0.9491189352 0.5135592188 0.3806633659
O -1.27472315 -0.3577431497 -0.723134305
H 2.6140979431 0.2343207221 1.2732658333
H 1.7427880395 1.7474154655 1.0086956925
H 3.114840545 1.3345137004 -0.0186676631
H 1.8835093876 -0.5851002077 -0.9887441417
H 0.9765936205 0.9211371299 -1.2397473412
H -2.1580951515 -2.1072636141 -1.2305729049
H -1.8792252278 -1.9027676391 0.5173954677
H -3.1923808722 -0.9870056143 -0.300431737
H -0.8944796064 1.5434552015 0.0105477697
H -1.6537706606 0.4196088514 1.2074281877
