10
0
O -1.0520836184 -0.7266921907 0.4675683259
C -0.5704262571 0.2569408716 -0.3574442019
C -0.6293056559 1.6284568197 0.1086548329
O 0.6082305301 0.9171147334 0.0404472967
C 1.7037254179 -2.3446425411 0.1232760011
O 2.8155518944 -2.4665523677 0.2021168942
H -0.5228108262 -1.5194451795 0.3313887907
H -0.6111366614 0.0286890014 -1.4217097535
H -0.9992569573 1.8035455027 1.1140073654
H -0.7363078659 2.4479373502 -0.5953845514
