17
0
C 2.2820327285 0.4222352699 0.1559091245
C 0.9055398775 -0.0018348589 -0.3239233558
C -0.0405701141 -0.6422817155 0.7014623275
C -1.3751264945 -0.6478218888 -0.0394343333
O -2.5288928703 -0.7391544326 0.7639175707
C -1.2619267909 0.6246899314 -0.8931810405
C 0.1520961019 0.9304439543 -1.1917605025
H 2.8361069405 -0.4197782219 0.5752021153
H 2.1888549872 1.1819643051 0.9348606174
H 2.8552298903 0.8519795974 -0.6652118072
H 1.038221823 -0.7393421558 -1.1542842419
H -0.1120702511 0.0019177651 1.5871734236
H 0.2748625607 -1.6296206204 1.0394301189
H -2.5225150634 -0.0171031332 1.3965391375
H -1.9650164056 0.7312442395 -1.7195908339
H -1.4500718924 1.5033773513 -0.2390310211
H -1.4274370272 -1.5191143867 -0.6991642993
