14
0
C -1.7914736821 0.0463909986 -0.6889073278
O -1.9455280904 -0.4477887761 0.4997362639
C -1.379633361 -1.4744623308 1.0418027546
C 1.2818855693 0.0653840695 -0.0662336872
O 1.4910319651 -0.9255274586 -0.7153583789
C 1.9613322392 1.3807801777 -0.2861890717
H -2.4179134291 0.8931857354 -0.9096432075
H 0.5489187897 0.0337316211 0.7699914808
H -1.1917053249 -0.4893308291 -1.4116725543
H -1.6821314452 -1.6791400016 2.0543021248
H -0.7018626504 -2.0817557488 0.455400496
H 2.69707119 1.3086595584 -1.0849534473
H 2.4376893571 1.7086916126 0.6411346097
H 1.2038188727 2.1284623716 -0.5356000549
