12
0
N -1.5188767754 -0.5671240051 0.7029019141
C -0.7159125668 -0.3012612385 -0.4897117296
C 0.7213447546 -0.1778830054 -0.0728359413
O 1.1832790407 -1.1692192754 0.7523731451
C 1.4885412215 0.8147969924 -0.4544968345
N 2.2235789083 1.6461808119 -0.9798586554
H -1.6974517222 0.2815648537 1.2227245656
H -2.4056254781 -0.9897557402 0.4711304119
H -0.8118442667 -1.1702604834 -1.1480338489
H -1.0213584625 0.582813873 -1.0582167618
H 2.2847955135 2.5230128751 -0.4633851913
H 0.407624833 -1.4415156579 1.2644179262
