15
0
C 2.160805452 -1.482160562 0.0052692375
C 1.0923885306 -0.8784443971 -0.8606927006
C 0.0192675122 -0.2976915897 -0.4134264845
C -1.0644079122 0.3246003292 -0.0178934892
N -2.3430969378 -0.2777240722 0.0681600295
C -1.0515776875 1.7778124704 0.2667060999
N 0.0010150124 2.4104294789 0.5672325893
H 1.9154822308 -1.3760159406 1.0609449106
H 2.2921139534 -2.5430077917 -0.2213852286
H 3.1184762308 -0.9888983306 -0.1764988649
H 1.2459692197 -0.9239440997 -1.9379804519
H -2.7821906112 -0.1313892167 0.9665990899
H -2.312945495 -1.264694145 -0.1368027712
H -2.0403343396 2.2484178652 0.1950832762
H -0.2022941584 3.3978200016 0.7011767579
