12
0
O 0.1759392474 -1.7601575008 -0.3764805741
C -0.0119163052 -0.3810845711 -0.6141211403
C -1.1721846283 0.2112971566 0.1916169071
C -0.571106473 0.8150564207 1.4383884009
O 0.7002667939 0.9278548502 1.2128168286
C 1.1388238265 0.4706891246 -0.116084199
H 0.1704899687 -1.92569431 0.5695412566
H -1.6484320847 1.0531258521 -0.3270489797
H -1.9632213344 -0.5055397593 0.4124924013
H -0.1439538988 -0.2837538649 -1.690668911
H 2.0698926964 -0.0777314694 0.0096701903
H 1.3067361913 1.3642410711 -0.7181691807
