13
0
C -0.7612334371 1.3069445465 -1.2254428077
C -1.7521392303 0.6691174362 -0.6159823647
C 1.6555725998 -1.5894524933 0.3131712299
O 1.9135711533 -0.64505359 -0.3809078387
C -1.5411050043 -0.572017742 0.0679657504
N -1.3729543006 -1.5677457936 0.6161932837
H -0.9462672638 2.2445467756 -1.7336158683
H 0.2489285026 0.9155035275 -1.2294561247
H 0.9909459669 1.3943711374 2.0309065955
H -2.7651972915 1.0523368733 -0.6024724582
H 1.5849259187 -2.6112587208 -0.0994914654
H 1.4744854732 -1.4850405405 1.3970886227
H 1.2856879129 1.1082105839 1.4076814452
