11
0
N 2.3752485485 0.1653324249 0.1502427748
C 1.128753236 0.1240773469 0.0770820775
C 0.383096111 -1.134546298 -0.0850818964
N -0.8731586797 -1.2105853685 -0.1658295461
C -1.6031896501 0.0375466083 -0.0909197967
C -0.939859896 1.3618964565 0.0774784841
O 0.3722783232 1.3075135558 0.1487483389
H 2.7134873683 1.1202131998 0.2604479162
H 0.994131721 -2.0334075945 -0.1325404908
H -2.340085597 -0.0287908886 0.7194319688
H -2.2338594852 0.1362235574 -0.9835968303
