19
0
C -0.7739149296 -2.6461019184 1.0695061927
O -0.1086248889 1.3327953433 1.2919948655
C -0.0861026667 1.3642134333 -0.1226146392
C 0.4752723395 2.7113956689 -0.5308616811
C 0.7291147954 0.2059187285 -0.6967119107
C 0.069428156 -1.1486201497 -0.534276771
O -0.1118131584 -1.4289016553 0.8401005534
H -1.7749426376 -2.6456401392 0.6201636568
H -0.8667373965 -2.7739626196 2.1468830018
H -0.2060927453 -3.4891889558 0.6568778747
H -1.1157930458 1.2812213648 -0.5087477494
H 1.5166534639 2.7989632636 -0.2132151017
H -0.0921769053 3.5109729953 -0.0538011075
H 0.424550059 2.8463039216 -1.6130714677
H 1.7129299493 0.197915392 -0.2176243416
H 0.8873948995 0.3707592407 -1.7666829807
H -0.9078755021 -1.1568037344 -1.0405492844
H 0.6845082908 -1.9358182028 -0.9919289696
H -0.2515910771 0.4166200235 1.5549168596
