14
0
C -1.9175037536 0.793337619 -0.0489143402
C -0.6748530577 0.0107095213 -0.3920868859
C 0.4759293176 -0.1470496858 0.6470467295
C 1.8771501476 -0.0743679777 0.1781017805
N 2.1636363456 0.0862904128 -1.0427284324
C -0.3936190691 -1.2801214976 0.2071249843
O -0.6527180962 -2.429218828 0.3550071528
H -1.7356868781 1.8638530501 -0.1552211702
H -2.2355551748 0.5998998004 0.97723505
H -2.7392254318 0.5164612204 -0.7103508383
H -0.2750317879 0.1353154577 -1.3964883921
H 0.2901816222 0.2094769518 1.6562451526
H 2.6348518211 -0.1983863132 0.9589761806
H 3.1690239947 0.0821822686 -1.1890099713
