15
0
C 1.4002005244 -0.8322834168 -0.8966480408
O 0.1992033393 -0.1549248743 -1.1763884235
C -0.5900370469 -0.0121020955 1.9509439428
N 0.3767907548 0.4170804515 2.3947813103
C 0.3853394472 1.2361046144 -1.2611092336
C -1.8101236493 -0.5535673222 1.3712398898
H 2.1371994451 -0.6766113215 -1.6950571252
H 1.17102495 -1.8954446923 -0.8299134887
H 1.8303816989 -0.4967242257 0.0545106155
H 1.0717344461 1.4953079628 -2.0775780396
H -0.5862704278 1.6873811211 -1.4613753269
H 0.7839465918 1.6409577592 -0.322848937
H -2.6301904055 0.1496345336 1.5122755407
H -1.6455552185 -0.7154562076 0.3056577203
H -2.0647994496 -1.4971822867 1.852359596
