14
0
C 2.618604435 0.3211484199 -0.1306700628
N 1.3504288945 0.2828490719 0.5690819115
C 0.1569902969 0.0694175436 -0.0364609372
O 0.2712111196 0.0709172362 -1.3726251575
N -0.9863571293 -0.1042731295 0.5080443817
C -3.8419383328 -0.5038995555 -0.63432977
N -4.869133503 -0.6436510337 -1.1215680174
H 2.5758713644 1.0292611568 -0.9563203148
H 2.9072508867 -0.6563387806 -0.5255093643
H 3.3832937231 0.6560377544 0.568115637
H 1.3648076263 0.1671628502 1.5646493029
H -0.9402197737 -0.0771405894 1.5188668732
H -2.8556598686 -0.3694699897 -0.1885601922
H -0.6129267393 -0.0566339546 -1.73101129
