15
0
O 2.4147107635 0.7742488012 0.8510122713
C 1.6213618501 0.1576880391 -0.136893049
C 0.3586076537 -0.4137555175 0.4565053155
O -0.4855533461 0.6115484773 1.026042474
C -1.6473355053 0.1274855912 0.3787753781
C -1.2981235207 -0.1590210216 -1.563738322
C -0.7675742688 -0.9089036646 -0.475330811
H 1.8993346775 1.4847204291 1.2411260879
H 1.374936676 0.8594454663 -0.9418929502
H 2.214952392 -0.6540289666 -0.5641397542
H 0.6081303419 -1.1474110027 1.2295018595
H -2.3356943297 -0.4227370621 1.0210601191
H -0.7389108156 0.7867644701 -1.6615576148
H -2.2150141179 0.9043174201 -0.1520454423
H -1.0654134508 -1.9501874593 -0.3851095617
