10
0
O -2.1650640035 -0.3926521862 0.5321685225
C -0.8919940473 -0.6700488229 0.4630611428
C -0.1784174455 0.6373919007 0.309555799
O 1.2319293498 0.5128332957 0.3608212233
C 1.8104388405 -0.2393061647 -0.588793439
O 2.9832035366 -0.4312929875 -0.6201171225
H -2.6571016162 -1.2162114128 0.6211644247
H 1.0980410675 -0.6428719051 -1.3284694123
H -0.4489175559 1.3164088157 1.1223996014
H -0.5043101259 1.1072904671 -0.6287967397
