12
0
N 1.5319472823 -0.1341330625 0.0689440519
C 0.2777822512 0.14112808 -0.6847050976
C -0.7976476889 -0.9257927779 -0.8099444827
O -1.7384869719 -0.0078594263 -0.1778269458
C -0.6665809016 0.7903035144 0.1846359181
N -0.5564249624 1.666248605 1.0934518589
H 1.6382532811 0.6803893749 0.6853666282
H 1.4998940389 -0.9657381262 0.6717228069
H 2.350994316 -0.2002382285 -0.5265938988
H -1.1345329678 -1.2103166454 -1.8079971009
H -0.6818517663 -1.827711626 -0.1879129782
H -1.4239699107 1.8112213186 1.5984452399
