16
0
C -1.818410274 -1.1344502181 -0.1535378588
C -0.7637617705 -0.0925343054 -0.0454521837
C -0.8430821687 1.4194902008 -0.0570044131
C 0.7044966745 1.4070451296 0.1413318052
C 0.5609324626 -0.0873697739 0.137560364
N 1.5129313615 -1.0695621769 0.4049670115
O 2.6826583167 -0.8686552899 -0.3710342783
H -2.4432185878 -0.9661518101 -1.0345939012
H -2.4804377242 -1.1255988316 0.7173514256
H -1.3910423534 -2.1364267404 -0.2325843115
H 1.1686743267 -1.9909183242 0.1622771338
H -1.1905057414 1.8693149244 -0.9907665242
H -1.3895666467 1.8706244391 0.7756126251
H 1.0526283791 1.8426501225 1.0806507934
H 1.279486965 1.8242259306 -0.6861116642
H 3.3755777806 -0.7844352765 0.2874339766
