14
0
C 2.1213959824 -0.3596330279 -0.5587587247
C 0.6744208691 0.0374101046 -0.5124347246
O 0.3468368786 1.1455092714 -0.1401830908
C -0.3375018071 -0.9928459652 -0.9280153765
C -2.7122768785 1.1939559028 1.1318351022
O -2.2342175837 1.9026069068 0.1598557191
H 2.2639299023 -1.3407844544 -0.1017367612
H 2.4302657195 -0.4458407629 -1.6039622352
H 2.735759368 0.3859904941 -0.0603710555
H -1.2927800329 -0.5311567187 -1.1688154341
H 0.0212898923 -1.5816691659 -1.7728818991
H -1.8595464701 0.557735105 1.5100901426
H -0.485651725 -1.682361394 -0.0918699254
H -1.2774151148 1.7275747041 -0.0176207371
