14
0
C 2.3497625013 -0.0082147868 -1.1401375713
N 1.2156165176 0.5822048314 -0.4546969159
C 0.2429055315 -0.1557406874 -0.1737074807
C -0.9126143281 0.4072550875 0.6126457687
O -2.1198260237 -0.3231636006 0.2774894803
C -3.2083811837 0.236996072 -0.1346550117
O 0.1727673679 -1.4701625284 -0.4751292999
H 3.039776769 0.7824593505 -1.4289811855
H 2.8811513321 -0.7078583732 -0.4885945525
H 2.044827138 -0.5593312653 -2.0340875545
H -1.0429786743 1.466638749 0.3954379592
H -0.7487752859 0.2532181239 1.6805767907
H -0.712318631 -1.8033830056 -0.2880392114
H -3.0156380306 1.3427820328 -0.1573082154
