13
0
C -1.5353769245 0.0977060148 -0.5310979606
C -0.9283022489 -0.1892673798 0.8323741071
C 0.5782013744 -0.2176522525 0.8551080722
C 1.3509545081 0.0025545641 -0.1683966468
C 2.1216155359 0.2237924414 -1.1930622059
H -1.2007045097 1.0631575232 -0.9153063842
H -2.6247276148 0.1144216269 -0.4729353245
H -1.2460982895 -0.6625840028 -1.2590139267
H -1.2947527152 -1.1495268455 1.2102142328
H -1.2655991329 0.559101082 1.5573147764
H 1.0525632778 -0.4371239866 1.8084763063
H 2.4425447859 -0.5855559713 -1.8389468311
H 2.4651579533 1.2244451863 -1.429867215
