18
0
C -2.1122254716 0.0704128966 -0.8408466179
C -1.6616411951 1.095176709 0.1915514749
C -0.5344304707 0.5821366225 1.0815896198
N 1.4126971325 -0.7895250823 0.581831521
C 0.7497214428 0.3615322814 0.3005011944
O 1.1547295174 1.1742451431 -0.5078917263
C 2.6729293078 -1.1367598274 -0.0312289042
H -2.9262827267 0.4600337526 -1.4540257127
H -1.2928566613 -0.194758757 -1.5127187352
H -2.4675985873 -0.8464720186 -0.3623744322
H -1.3142916709 1.9998112844 -0.3110100676
H -2.5053129685 1.3824109778 0.8246007901
H -0.3036467748 1.3217162875 1.8535563868
H -0.8406989276 -0.3345171027 1.5952993775
H 1.0130045188 -1.4128682984 1.2583885611
H 2.9068851658 -0.3661504313 -0.7624512779
H 2.60875793 -2.1003100864 -0.5405313373
H 3.4773934395 -1.1790743507 0.7065518856
