11
0
O 0.1997214487 1.6339327787 0.8378438684
C 0.5407575317 0.635561845 -0.0866373997
C 1.6120559835 -0.3688039024 0.3703821206
O 0.3766889614 -1.515450664 0.0302370182
C -0.3891021321 -0.5346437483 -0.118960725
N -1.7070917566 -0.5859595348 -0.1651946675
H 0.6367983652 1.3558074575 1.6533645863
H 0.6614769545 1.0995740968 -1.0709005673
H 2.2940148461 -0.6055867029 -0.4551664446
H -2.1923644115 -1.4553413288 -0.0184988475
H -2.226155791 0.2739947031 -0.1909469418
