9
0
C 0.0002504436 0.5328822326 0.3859585301
C 1.2574834153 0.076276205 -0.2809028042
N 1.1914941979 -1.1522740806 0.0682243258
N 0.0034918187 -0.8979032879 0.8812372797
N -1.1888842411 -1.1550391323 0.075504066
C -1.2600739406 0.0734590379 -0.2729095287
H 0.000950011 1.3719958427 1.0779498303
H 2.0395614897 0.5582314373 -0.8540191007
H -2.0484001946 0.5539837451 -0.8390185982
