13
0
O -0.5018066771 1.0562371322 0.3732941567
C -1.2124861209 -0.1469463517 0.0647918793
C -0.573097824 -0.7820968573 -1.1457511955
C 2.5931528337 0.1117510275 1.0815633508
O 2.211576748 1.0627754187 0.2906006931
H -0.8932348342 1.4723134396 1.1431383051
H -2.2602597243 0.0962575977 -0.1380298644
H -1.1755177233 -0.8270263988 0.9223345728
H -0.5901291671 -0.0964554977 -1.9939150564
H -1.1158652068 -1.6865953549 -1.4229970343
H 1.6509190597 -0.3549089521 1.4940703161
H 0.4631139558 -1.0572048807 -0.9433721003
H 1.2303166805 1.1540096776 0.2355109773
