10
0
O 2.4181032806 -0.2826669115 -0.0235780587
C 1.2138027111 -0.3194413983 -0.0873343655
N 0.4104871813 -1.4016638279 0.2048825098
N -0.8351918958 -0.958927631 -0.0138983879
C -1.028482012 0.2581252012 -0.4097170779
C 0.3131857083 0.8642993537 -0.5162766754
H 0.5610202975 1.1911140166 -1.5281716658
H -1.5787161446 -1.6242866744 0.1488410528
H -2.0155308669 0.6510014953 -0.5958059689
H 0.4552507404 1.7171323761 0.1505886375
