10
0
O -1.8749535028 0.3629717552 -0.1080576765
C -0.8293638758 -0.5883361061 0.0237945966
C 0.3974038187 -0.0554338574 -0.6445340905
C 1.4612619737 0.3016621819 0.0242841894
N 2.4900184791 0.519911041 0.6398093814
H -2.6898278674 -0.0369836663 0.2012883786
H -0.6143083706 -0.7937439763 1.0787123346
H -1.1171208411 -1.5345873151 -0.4506657583
H 2.5942630308 1.4669869076 0.9935279673
H 0.3966931554 0.0843900353 -1.7183843226
