13
0
O 2.0802851831 0.5483427968 -0.0875134644
C 0.7688230907 0.2762401822 -0.5286911887
C 0.1175554571 -0.9884224167 0.0443556244
C -1.3450232158 -0.5679917848 0.2551019787
N -1.3599556361 0.8989480596 0.2917950151
C -0.2498899111 1.3251357804 -0.134010708
H 2.0753436125 0.6006337999 0.8713177607
H 0.8446971286 0.2330969651 -1.6195581934
H 0.5882724427 -1.2202591799 1.004000693
H 0.2336771486 -1.8598119809 -0.5980391203
H -1.9872599172 -0.8882066067 -0.5701214757
H -1.7869806537 -0.9613995329 1.1713422482
H -0.0436517294 2.3902939177 -0.2191731696
