17
0
C -2.3958049152 -0.2102107102 0.5909878064
C -1.3736837302 -0.4075639534 -0.5208732837
C 1.1011665243 -0.9293438207 -0.9626461721
C 2.2960215045 -0.0775437072 -0.7026756082
C 1.8893781562 1.0327801594 0.2320462989
C 0.6263819093 0.8611323013 0.5981870564
C 0.0753718721 -0.3995938583 -0.0338892945
H -3.4119818623 -0.2464280898 0.1950535023
H -2.3057885436 -0.9909956384 1.3504780627
H -2.2741351713 0.7537797953 1.0896231931
H -1.5458471507 -1.3559334158 -1.0334974858
H -1.4901016108 0.3775229344 -1.2734899907
H 2.697735559 0.2592115999 -1.6671981308
H 3.0898314884 -0.7335841707 -0.3165929277
H 2.5412325248 1.8367239481 0.5505017836
H 0.0700689513 1.5006204809 1.2720732685
H 0.1701234945 -1.2345038548 0.7021019216
