11
0
C -1.3603284521 -0.478586632 0.073222512
N -0.0171270296 0.0315200283 -0.0105840782
C 0.4794606801 1.2714042394 -0.0129396873
N 1.7860122061 1.2889455254 -0.0758718914
C 2.2354137216 -0.0286767449 -0.1186086638
N 1.1029006892 -0.7527377609 -0.0737896684
H -1.6008223173 -1.0834906345 -0.8029249512
H -1.4918966493 -1.0762419369 0.9771562075
H -2.0438920516 0.366971517 0.1112101532
H -0.1747826209 2.1317417807 0.0333339227
H 1.0106388241 -1.7536913814 -0.0921468549
