17
0
C -1.5127768614 2.1372474615 0.6992339589
C -1.2095233259 -1.2201783894 -0.7466863769
N -0.1028334055 -1.1445485897 -0.0751153875
C 0.90726769 -2.0136437076 0.4991400934
C 1.0163258499 -0.552623857 0.2841907892
C 1.8828645452 0.3310109153 -0.5336495336
H -2.506342033 1.6981618838 0.776220086
H -1.4700338123 3.0480044912 1.2947651614
H -1.3057923788 2.3799193115 -0.3430876285
H -1.7961873585 -2.1223823072 -0.6768106152
H -1.5595533114 -0.3463749487 -1.2762508902
H 0.7228259479 -2.405863295 1.4958929116
H 1.3049909615 -2.7392172952 -0.2184069394
H -0.7711148423 1.425763255 1.0631781957
H 2.8489281283 0.4710653173 -0.0503853454
H 1.4268857021 1.3151520756 -0.6525428282
H 2.0538245039 -0.0866213215 -1.5377726513
