18
0
C -1.6412175034 0.7312357898 0.005372211
C -0.6797096334 -0.0720761137 0.8796752502
C -0.9940360406 -1.4792901251 1.1372438528
C 0.8258532292 -1.1190076253 -0.9777578589
C 0.7735391731 -0.2318717722 0.2660215876
C 1.3622150604 1.1461178687 -0.02149166
H -1.3413844221 1.7781656734 -0.0744753239
H -1.7106907842 0.3139470345 -1.0015390098
H -2.6432767156 0.7149386559 0.4380910731
H -0.5041794316 0.4507823769 1.8264857024
H 0.5717034812 -2.1569278935 -0.7520222533
H -1.582276709 -1.8419443796 0.2675527216
H 0.147616048 -0.764647784 -1.7571002645
H 1.834311996 -1.1126520119 -1.3961674436
H 1.3757100024 -0.7046356942 1.044705127
H 0.8527424789 1.6378714614 -0.8527440693
H 1.3032985162 1.7993361895 0.8509853283
H 2.4145452546 1.0436813494 -0.2953999705
