15
0
C -2.2990572886 -0.1042511179 0.1017823795
C -0.963892658 0.5001586583 -0.1265451364
C -0.4719704712 1.6248774122 -0.6712319593
N 0.9164355412 1.2136113712 -0.6559591425
C 0.4170804354 0.0162377067 0.0106591262
N 2.4541701343 -1.1937985168 0.4606718087
C 1.0692118343 -1.0463734701 0.4642220684
H -2.4192740367 -1.0232097121 -0.4781423027
H -2.4437708759 -0.3617097335 1.1539225756
H -3.0920981943 0.5853010665 -0.1888281975
H -0.8629230138 2.5372275828 -1.0996440711
H 1.5120288437 1.7891459379 -0.0683474015
H 2.7671060721 -2.1493887626 0.424899275
H 2.9181154133 -0.6311727309 -0.2363741806
H 0.5087862638 -1.8490096916 0.929174158
