14
0
C 1.2290230327 0.4614893158 -0.7066239564
C 0.6452643418 -0.1197249034 0.5756160973
O 1.1675626944 0.5720529037 1.7065878893
C -0.8543477281 -0.1876733377 0.6688105269
C -1.8074254981 0.2091414659 -0.172378941
O -1.7073912184 0.7746212562 -1.3967200381
H 0.9319674684 1.5061032316 -0.8446371046
H 0.9435875074 -0.1275498874 -1.5835878355
H 2.3167105849 0.4467313724 -0.6426321871
H 1.0342415411 -1.1368071021 0.6863357879
H -1.2160756238 -0.6222106568 1.5941868561
H 0.659968707 1.3800128787 1.8155905744
H -2.8502757145 0.081411906 0.0942763807
H -0.7851780948 0.8727835572 -1.6447180497
