13
0
N -1.5497777021 -0.6920340425 0.2000619613
C -0.442605542 0.0357981966 0.0441828546
C -0.4959269437 1.5224261573 -0.1315916536
C 0.7644789111 1.9010697842 -0.2548247975
C 1.6091879283 0.6346354757 -0.1555223698
O 2.8042938949 0.5969077363 -0.2268405198
N 0.7520467199 -0.4610491453 0.0310204441
H -1.4691975868 -1.6877889292 0.3111131678
H -2.4578650573 -0.2692455641 0.1985828634
H -1.3993250517 2.116383645 -0.1480184055
H 1.1773724703 2.8876293504 -0.3993060791
H 0.05287867 -3.8262437228 0.3740496983
H 0.4308422892 -3.1820259415 0.3320688358
