13
0
C -0.5736908492 1.5487800306 0.0538501609
C 0.2612635932 0.5978401908 -0.7462486166
C 1.174363459 -0.2283391424 -0.2444563684
O 1.429179525 -0.3057630678 1.0885644758
C -2.4808312873 -2.6387162049 0.5107743496
N -1.6643231302 -1.8779331936 0.1877444475
H -1.6384650443 1.4014685742 -0.1437911047
H -0.4031323127 1.4250401796 1.122398777
H -0.3401520034 2.5828647456 -0.2104343944
H 0.1490954375 0.5920624463 -1.824476259
H -0.953380816 -1.2208624073 -0.1004164031
H 1.7635984369 -0.8791668218 -0.8837891872
H 2.0638169915 -1.0009293295 1.2630511223
