13
0
C -2.3485807509 0.1283069783 0.2490175136
O -0.9795397006 -0.2630186761 0.3371368293
C -0.2280881074 0.0107883804 -0.7353391943
O -0.6493284674 0.5202487637 -1.7359295113
C 1.2014236561 -0.4008018298 -0.4950514799
C 1.8971184923 0.565495134 0.4233817454
O 2.908530839 -0.0716898841 0.9521315158
H -2.8323308415 -0.3598961336 -0.5969210838
H -2.8063038721 -0.1855306281 1.1834302574
H -2.4279425871 1.2087118375 0.1285485962
H 1.7343879067 -0.3250722303 -1.4488685739
H 1.2624659287 -1.4334085837 -0.136943957
H 3.3906035042 0.5434518715 1.5158403425
