12
0
O 1.1012659054 -0.9692518308 2.1147295125
C 0.6358015956 -0.1898411937 1.1540683809
C -0.0707635211 -0.6469571766 -0.0928922887
C -0.1017188351 0.8867509078 -0.3580515098
O -0.5368848221 1.5457539853 -1.2585144744
C 0.5982908617 1.1393294204 0.9076370716
H 1.5155622438 -0.4414419351 2.8043457906
H -1.9250026412 -0.8048664918 -3.2196482145
H -1.0447149353 -1.1161917271 0.0527160089
H 0.5285194039 -1.2303027363 -0.7933681429
H -1.6421354218 -0.1902509413 -2.9033054928
H 0.9436061665 2.0234517194 1.4237693586
