12
0
O -1.3385623711 2.2465075121 -0.3455445238
C -0.5717638844 1.3762576233 -0.0841020488
C -0.9401542644 -0.0050246013 0.3801245587
C -0.0039466838 -1.0153869719 -0.2530866116
N 1.3590414763 -0.5410271579 -0.0562446414
C 1.7807196811 0.708655251 0.0056922485
O 0.7782379886 1.6265806753 -0.1561137049
H -0.8300598669 -0.0250720673 1.4682558705
H -1.9836874082 -0.1900218899 0.1361501682
H -0.209903211 -1.1229391703 -1.3220938495
H -0.1125548434 -1.9965849209 0.2085401381
H 2.090224387 -1.2268362823 0.0216323962
