13
0
O 2.1427650832 -0.9643010065 -0.9517662314
C 1.0974923283 -0.5737414814 -0.714152277
C -0.1189095586 -0.0933501144 -0.3759238706
C -0.5037186697 -0.6432193788 1.1224750887
C -1.1502185969 -1.2209972739 -0.0412994753
C -0.5225698753 1.2747918514 -0.8154004616
O -1.6556655821 1.6495532565 -0.7735250607
H 1.9008549681 1.6798217982 1.7346707455
H 1.2500315966 1.3246558559 1.8346677975
H 0.3243848589 -1.2748909028 1.4743761695
H -2.1294584031 -0.8375552966 -0.3193209802
H -0.9303688097 -2.2078043131 -0.4542901254
H 0.2955596604 1.9260810058 -1.1768753191
