14
0
C 2.288501128 0.7553267033 0.0973538336
N 0.9448597694 0.3990143713 -0.3064463675
C 0.0123658717 1.2999418003 -0.563052838
N -1.1313107426 1.2017508219 -0.9799394666
N -2.3699798743 1.2643132092 -0.8292163148
C -1.6849982373 -1.5406158644 0.8296702047
C -1.01494235 -2.4988350873 1.0839866326
H 2.4261455424 1.821464289 -0.0687431775
H 2.4586406237 0.5394984598 1.1551469091
H 3.0245832502 0.2099353258 -0.4964571904
H 0.6738784065 -0.5717413737 -0.2260688366
H -2.7930528884 1.2771649281 -1.7599973556
H -2.2745808704 -0.6796814572 0.5849509172
H -0.4349876288 -3.3593191261 1.3239440496
