13
0
C -1.8862764623 -0.0789025734 0.1458612284
N -0.6322366638 -0.1387562241 -0.5683681509
C -0.2576217701 -1.2107203329 -1.296761585
O -0.8848160126 -2.2391688637 -1.4218053128
O 1.7047798304 1.7233879784 -0.0713501607
C 2.3743562799 1.0534127041 0.6651300948
H -2.5574163402 0.6642574566 -0.2901928592
H -1.722803223 0.1686702592 1.1964189732
H -2.358887819 -1.0567331638 0.0820703467
H -0.0145258549 0.6601510279 -0.5599757038
H 3.3319161856 1.4245623712 1.0696856646
H 2.0625942355 0.0381645914 0.9713306663
H 0.7225636146 -1.0564832307 -1.7848542015
