15
0
C 2.4162386808 -0.5995493412 0.0583795354
C 1.026907673 -0.0598106686 0.1271362949
C -0.1182443115 -0.6949215011 -0.5209586096
C -1.1857034307 0.0746065546 -0.2297137486
N -2.4902916628 -0.0302033055 -0.6234388843
C -0.6880790806 1.2149264252 0.6137084837
N 0.738313194 1.0123297669 0.7746990295
H 3.0918841672 0.0368258647 0.6262125094
H 2.4516396967 -1.6138403562 0.4633312489
H 2.7555738573 -0.6521438136 -0.9788872063
H -0.0949833491 -1.6000823632 -1.1111803256
H -3.1813643951 0.4540331697 -0.0796950427
H -2.7974631263 -0.9078772904 -1.0025917813
H -1.1787198576 1.2393215307 1.5928138969
H -0.8808830554 2.1788433279 0.1322535997
