12
0
C -1.458823599 -0.4140676359 -0.4752177802
C 0.0412600517 -0.3164593382 -0.4555305134
C 0.556089655 0.8763195832 0.2838576019
O 2.035190755 1.0746115518 0.315387021
C 1.4298262356 0.7485052649 1.4368895506
O 1.6759145994 0.5312750452 2.5700720716
N 0.8692509782 -1.1200671867 -0.9640829661
H -1.7835200993 -1.3334225314 -0.9604659643
H -1.8557911603 -0.3951020795 0.5426773144
H -1.8908833355 0.4366424747 -1.0076940106
H 0.0102981287 1.8062873147 0.1477648929
H 0.3937987905 -1.8928204628 -1.4252422175
