11
0
C 1.7736735341 -1.4414214646 -0.6367495749
C 0.8050284265 -0.6620797214 -0.283795274
C -0.1798600808 0.1281383978 0.0677651407
C -1.0322706052 0.0860877295 1.2529200232
N -1.8871686566 1.0398934201 1.2284241183
N -1.6950971743 1.8007277164 0.0445664281
C -0.7267736331 1.2928050652 -0.6228732396
H 2.7938554971 -1.2289420568 -0.3388486238
H -0.9847306602 -0.6304206036 2.061161412
H 1.5834863312 -2.3217442317 -1.2398581639
H -0.3927409789 1.702368749 -1.566174246
