8
0
O 0.2667152882 -1.5947150404 -0.0389949277
C 0.9419500037 -0.4965259918 -0.0642802007
C -0.2892868845 1.7949222832 0.0402515164
C 0.3050801195 0.7503697477 -0.0091589214
N -1.0285319933 -1.7273563915 0.0369842661
H 2.008580742 -0.6374251721 -0.1312651504
H -0.801971598 2.7276413341 0.0814612086
H -1.4087006776 -0.7709867692 0.0729462091
