13
0
C -1.1742746579 -0.7002258025 0.291446813
O -0.2402443869 -1.5138821147 -0.4220122122
C 1.000565891 -0.8795864925 -0.3454458816
C 0.3785078498 1.2382753154 0.9867054162
N 0.7070338719 0.5607000972 -0.3687145806
C -0.687034246 0.7300302327 0.0837000546
H -1.1633034396 -0.9478541601 1.3563614992
H -2.1591286662 -0.889240506 -0.1347309034
H 1.515001474 -1.0849672584 0.5970934439
H 1.6030232657 -1.1696599094 -1.2069943341
H 0.5257047283 2.3104042868 0.8104135637
H 0.9693793316 1.0685119958 -1.201565352
H -1.2915660158 1.3522193158 -0.5753205265
