9
0
O 0.0561701667 -1.293528178 0.8556457408
C 0.696372229 -0.6326470386 -0.2413468342
C 0.6899671771 0.866528198 0.0591533684
C -0.6374781503 0.8887729853 0.1798389533
C -0.7481119704 -0.6084271717 -0.1104359686
H 1.326320141 -1.2200558722 -0.8933517315
H 1.4766831638 1.5818166298 0.2539797646
H -1.3535751081 1.6282978161 0.5097837236
H -1.5048936488 -1.1710733686 -0.6376360164
