11
0
O -1.5922757011 1.9488730856 -0.0811941953
C -0.3922321015 1.4119706418 0.1337239443
C -1.4180468665 0.4707419217 -0.1839947479
C 1.1572865339 -2.6205927186 -0.1791473619
C 1.3996638271 -1.4743743282 0.0633677216
N 0.7841012557 1.7040184601 0.4211679896
H -1.5093082758 0.0828715097 -1.1916895036
H -1.9099044551 -0.0863309739 0.6046900865
H 0.9535473251 -3.6437592904 -0.3923991347
H 1.5999307842 -0.4419817776 0.2751951542
H 0.9099176741 2.7052774698 0.5448960471
