12
0
N 1.1251428104 1.1324673382 1.2411656023
C 2.117559397 1.218567867 0.4080489927
C -1.5542507051 -1.2554297815 -0.1805505154
O -1.08130087 0.0785398952 -0.2758506565
C 1.7577115146 0.7945572323 -0.914163781
N 1.5696985447 0.4823141425 -2.0100299156
H 1.2774445138 1.4137203819 2.1977567827
H 0.1921408996 0.793363055 0.9806367135
H -0.7398561729 -1.9807705313 -0.2665060181
H -2.3028430146 -1.4656645202 -0.948779312
H -2.0223506242 -1.3632829454 0.797011352
H -0.6211252932 0.1839648663 -1.1162252445
