15
0
C -2.1647126926 0.0972343363 -0.0903008278
N -1.3803854498 -1.1082229463 -0.2030550088
C -0.1667236688 -1.2389302213 0.3979972534
N 0.3943388703 -0.4591116354 1.2336823151
C 1.7332386778 0.9943130866 -1.2436598033
O 0.7898533481 1.010388786 -1.9172264326
C 2.7992130534 0.9794805894 -0.4901030216
H -3.0802406891 -0.0181888633 -0.6669928087
H -1.6258431847 0.9738073372 -0.4653647995
H -2.446822058 0.2781242278 0.9499494225
H -1.5687132224 -1.7181678211 -0.9763445742
H -0.1754606553 0.3603908548 1.4324918389
H 0.3576166308 -2.1506649888 0.1091053194
H 3.7025599529 1.4561395197 -0.8368312698
H 2.7260090872 0.4815507384 0.4663873968
