14
0
C 1.7125970403 0.3202298007 0.1557028736
C 0.5241601348 0.0604180897 -0.7330485436
C -0.2384444881 -1.2343579999 -0.6395141785
C -0.8608388058 0.0367552545 -0.1770302528
O -0.9900123571 0.1954376662 1.2355801004
C -1.9533519885 0.8540076245 1.7803532748
H 1.5796589115 -0.1314958875 1.1386100426
H 1.865462938 1.3912677578 0.300301987
H 2.6179618995 -0.0949925349 -0.2898742742
H 0.5915871271 0.4964785018 -1.7239352234
H 0.0643397716 -1.9236365081 0.1388927617
H -0.6289622561 -1.6960264664 -1.5362547413
H -1.6897267875 0.490580082 -0.7102964551
H -2.6079431396 1.2273356193 0.943779629
