11
0
C -1.3049207841 -0.5766467929 0.6397220785
C -0.2497470533 0.476610371 0.8379588631
C 2.0795594674 -0.9767065883 -1.3466466732
O 1.9157523548 -2.0462187651 -1.0453976445
C 0.1641942664 1.2741643845 -0.109803056
N 0.4788700973 2.0740857953 -0.976752784
H -2.1371644176 -0.4268328442 1.3306236547
H -1.7026103157 -0.5500047187 -0.3746551884
H -0.902487101 -1.5766746949 0.8186802818
H 0.2121473783 0.5928522035 1.8115984799
H 1.2599151073 1.7754756496 -1.558036012
