13
0
N -1.6417383538 1.2251815873 0.0336180093
C -0.3779397426 0.7965815436 0.0365324017
C -0.1253258447 -0.6883836013 0.263401068
O -0.7652573557 -1.4847521281 -0.6974123466
N 1.3196023112 -0.7162126025 0.214001915
C 1.7283038699 0.5686738058 -0.0519006663
C 0.7702395372 1.5701896581 -0.0911020245
H -2.4043419922 0.5845924923 -0.0991463408
H -1.7920562624 2.2029939822 -0.1483801691
H -0.8910468836 -2.3682033995 -0.3469859533
H 1.7922142014 -1.5160450366 -0.1721195793
H 2.7975079695 0.7031437723 -0.2011582759
H -0.4612984541 -0.9558500739 1.2733019616
