16
0
C 1.9463588625 0.3442269897 0.414373568
C 0.8425933778 -0.6808836111 0.6136382584
C -0.4957458173 -0.3201063959 0.0127765662
C -1.6044552339 -1.3226345778 0.2004563512
C -0.6937804396 0.7936613204 -0.6343231007
C -0.8960502002 1.9010319738 -1.2881900566
H 2.1372690894 0.5163581382 -0.6464040673
H 1.6779605955 1.3040178585 0.8592099079
H 2.874804133 0.0028754452 0.8747720539
H 1.1500848558 -1.6458928178 0.1942218018
H 0.6908592748 -0.8633110253 1.6838986027
H -0.7392733038 1.9579849583 -2.3600039897
H -1.78523605 -1.4974360279 1.2647617567
H -2.5325870107 -0.9825507027 -0.2558602921
H -1.3295710697 -2.283387575 -0.2437016408
H -1.2294910638 2.8013150491 -0.7836097195
