15
0
C 2.0715001209 -0.050122337 -0.5651419511
C 0.5819215062 -0.2431413222 -0.3114066549
C 0.2590990389 -0.4692948538 1.1602722865
C -2.7662180666 1.1084288238 -0.0839211822
O -2.6138155457 2.0925911938 0.5104741422
N -3.0587707081 0.1069891295 -0.6936134372
H 2.2809251513 0.1109029242 -1.6241287744
H 2.6406597162 -0.9246087943 -0.2406560148
H 2.4519857285 0.8140683111 -0.0154830369
H 0.0424020153 0.6371498787 -0.6763573434
H 0.2250338972 -1.0951257346 -0.9009705893
H 0.7839743472 -1.346825453 1.5453393922
H 0.5616111925 0.3893671414 1.763780189
H -0.8088556243 -0.6279172001 1.3255326903
H -2.3917797693 -0.5488847076 -1.0591667161
