12
0
O 1.3232067807 1.1546469439 2.8317858834
C 0.4593706531 0.5022315406 2.5340348552
C 0.9409813792 -0.7566791953 -0.6388724937
C 2.1377580293 -0.7622346217 -0.650729313
C -1.0341642871 0.7039656529 -0.7918922036
C -0.5185396534 -0.7093075978 -0.6220800497
N -1.8357836661 1.3113062809 -0.0335392146
H 3.2021734249 -0.7741922611 -0.6612438128
H -0.6607763278 1.2323084306 -1.6722073873
H -0.8956572763 -1.1331509484 0.3116880328
H -0.9034131537 -1.3231406426 -1.443029407
H -2.1037239027 0.728348418 0.7604351103
