15
0
C -1.541958856 -1.0074997199 1.3291244544
C -0.6056597059 -0.4568457579 2.0839404357
C 1.1545257045 0.8850291878 -0.578357573
C -0.0223533584 1.6063137049 -1.1682883581
O 1.9165198916 1.3769688487 0.2139189145
C 1.332431262 -0.4992766229 -1.0230316446
C 1.4675598207 -1.6302676238 -1.3943487608
H -2.5940933432 -0.790961836 1.4774727873
H -1.2916868133 -1.701304024 0.5340631346
H -0.93778275 1.100410272 -0.8529050919
H -0.8503230796 0.2394374514 2.8778359985
H 0.4459285815 -0.6750134936 1.9362917987
H 0.0195605684 1.5653975216 -2.2583834267
H -0.0303682726 2.6380834109 -0.8239785548
H 1.6032953504 -2.6367413193 -1.7160641141
