12
0
N 3.4004801126 -0.8156873758 0.8562118219
C 2.3124520492 -0.5478673786 0.6089356929
C 0.9348844925 -0.2084787782 0.375825828
C -0.2008811691 0.1151271584 1.2981944093
C -0.9255353308 0.2395320239 -0.065016791
N 0.3454304569 -0.1068570381 -0.7547425309
H -0.5254987671 -0.6950933057 1.950141225
H -0.0936751618 1.0331028589 1.8749811475
H -1.626571445 0.5184031306 -3.4690896961
H -1.2791820809 1.2348712839 -0.333407726
H -1.7093171168 -0.491902514 -0.2612291255
H -1.0023800397 0.2552659346 -3.1563412553
