13
0
C -1.2947577877 -0.8366816605 0.0440799456
C -0.0866232486 -0.0908072788 0.5913912635
C 1.1466723116 -0.1652498224 -0.2863218356
O 1.1355127147 1.1563951321 -0.8986900206
C -0.2147005783 1.4354852887 0.4793612428
H -2.1841897974 -0.5989703733 0.6293989663
H -1.1480831807 -1.9203791029 0.0669665354
H -1.5014648169 -0.5374070049 -0.9873934914
H 0.1268032196 -0.4257636731 1.6121160466
H 1.1501071203 -0.950319494 -1.0479528208
H 2.0766612707 -0.2081711347 0.2775574909
H 0.5330558521 1.8739101672 1.1603336862
H 0.5269689205 1.1661509565 -1.642097009
