8
0
O -0.9345249988 0.5695842784 -1.4629231803
C -0.2069599107 0.3026449811 -0.5511647988
C -0.4677184838 -0.7232826457 0.5068206904
C 1.0857009307 1.0238882717 -0.4074593311
N 2.0883444386 1.5652078852 -0.2752337103
H -0.468351332 -0.2418590547 1.4873262955
H -1.4239729995 -1.2066561821 0.3218506156
H 0.3388393555 -1.4596385339 0.5095574192
