19
0
C 2.7080557581 0.382417197 0.7680383628
C 1.3901357438 -0.3067997789 0.5929205568
C 1.2543597424 -1.4728024897 -0.0295261537
O 0.1097223421 -2.162075729 -0.2340539797
C -2.2438695522 0.3988759173 -0.5944932242
C -1.4551970655 0.4560460011 -1.8597485465
O -2.0896969426 -0.4193881087 0.2788176361
H 2.9449884939 0.5310592167 1.8250012436
H 3.518718928 -0.1987611503 0.3242014549
H 2.713039618 1.3698253772 0.2976427455
H 0.5105023788 0.168784782 1.0194765251
H -1.7005725791 1.4092565282 3.1074665066
H 2.1091950452 -1.9932303842 -0.4515698032
H -0.6494679132 -1.6520625773 0.0952885471
H -3.0150472565 1.1825306036 -0.4655754944
H -0.771263435 -0.3862142897 -1.9419341559
H -2.1372036802 0.4825640324 -2.7130650599
H -0.8918259262 1.3933441997 -1.8752669212
H -1.8686876996 0.8854816527 2.60397976
