13
0
N -2.3155412288 -0.6352127169 0.3097088663
C -1.0732275266 0.0148404044 0.1124675074
C -0.6721167827 1.2767068725 -0.0571512532
C 0.832514527 1.1554674595 -0.2063831245
C 1.1579687871 -0.302645126 -0.0972110844
O 2.3288514502 -0.9170492125 -0.1619550387
N 0.0630100487 -0.9453558894 0.0848309657
H -2.9433197245 -0.4390866171 -0.4572108069
H -2.7601485943 -0.3016835328 1.1534992601
H 1.1906885448 1.542348245 -1.1672567054
H 1.3718097225 1.7108140397 0.5696901006
H 3.0254981332 -0.2693724777 -0.3010903291
H -0.0167803568 -1.9465564488 0.1928196418
