23
0
C 2.1572557782 0.1848377077 -0.7772492419
C 1.5951131889 0.052284349 0.6317810428
C 0.2030714336 -0.5780411809 0.6953406264
C -0.1951897748 -0.8609772703 2.1481094579
C -0.8948240738 0.2192221457 0.0135532673
C -0.9115140371 1.5458097958 -0.0377581941
C -2.004523707 -0.6006789241 -0.5793205811
H 2.2128615823 -0.7902036181 -1.2681588267
H 3.1639842976 0.6060740094 -0.761407483
H 1.534369691 0.8315883899 -1.3970123485
H 2.2681362637 -0.5680636273 1.2320189968
H 1.5795120414 1.0297019945 1.1246529438
H 0.2610216054 -1.5433411774 0.1755869998
H 0.5165926696 -1.5405645813 2.6218651907
H -0.2150342404 0.068366849 2.7219242954
H -1.185843421 -1.3144986139 2.2154026068
H -0.7280346813 0.6905802176 -3.6757732077
H -0.6140924964 0.8325583109 -2.9521081159
H -1.7365215519 2.077554765 -0.4975699233
H -0.1118318374 2.1511134027 0.371956179
H -2.814217716 0.0243125622 -0.9555848442
H -1.6265811869 -1.2075563443 -1.407575431
H -2.4194668281 -1.2946601618 0.1569545911
