16
0
C -0.9912883758 0.2232199529 -0.8045772088
C -0.3259287636 0.1314330233 0.5447061991
C -0.349387031 -1.0476247418 -0.3813383508
O 1.0530993268 -1.0016167422 -0.607012894
C 1.1860459636 0.0594312549 0.3756436996
C 1.9705884853 1.2486585331 -0.1134817072
H -2.0735882869 0.2379798579 -0.763880408
H -3.4887496976 -1.720095671 0.9317527878
H -0.5505915715 0.7952774022 -1.6127431643
H -0.8497072957 0.3030306524 1.4732646784
H -0.8307396235 -2.0143336429 -0.3204119518
H -3.0748783695 -1.7149533127 1.5510130352
H 1.6474578848 -0.3619083823 1.2747268044
H 2.9810304905 0.9442570233 -0.3921911813
H 2.0458575808 1.9967817211 0.6786250896
H 1.4997922834 1.7068230718 -0.9837184278
