14
0
C -1.6974962419 0.3114937914 0.2285052423
C -0.6212391657 -0.7592195165 0.112088567
C 0.7231743929 -0.2054192323 -0.2857298301
C 1.7263001567 0.2329653705 0.6814921829
O 1.8494211163 -0.9962997993 -0.0274302392
C 0.6729540082 0.9249288717 -2.5990570552
N 0.72963478 0.4145080005 -1.5534918725
H -1.4237957535 1.0674756734 0.9673960852
H -2.6435607017 -0.1323583701 0.538738769
H -1.8600861381 0.8153012021 -0.7253110529
H -0.4818252048 -1.2759114011 1.0633615925
H -0.9051002997 -1.5140084265 -0.625577505
H 2.4351628037 1.0031961272 0.3967732945
H 1.5106362476 0.139065709 1.7418348212
