14
0
C 1.224571431 -0.2541022859 0.4642754651
N -0.2372575382 -0.0700770374 0.2458688119
C -0.6138919332 0.9765187013 -0.7541756047
C -0.8978278541 -1.3512662331 -0.0815660535
C -0.1887933456 2.2391333793 -0.3140079657
N 0.1207179505 3.268055001 0.1258788012
H 1.6581202675 -0.6100876491 -0.4684780104
H 1.4051618246 -0.9747406475 1.2637689606
H 1.650287361 0.7137913728 0.7192684851
H -0.6338919773 0.2570350635 1.1242394073
H -0.2943570919 0.6725743756 -1.7456784409
H -1.9663592784 -1.1698355085 -0.1545588645
H -0.5254351696 -1.6881527332 -1.0475113674
H -0.6705206463 -2.0961977988 0.6806343761
