14
0
C -1.958698634 0.6648040891 0.2378938616
C -0.7118234225 -0.1717816968 0.2413707208
O -0.4653857889 -0.7025402777 -1.1074236947
C 0.6816532863 -0.3880467964 -1.602932602
C 1.3162109005 0.4540206934 -0.5167428148
N 2.4535318724 0.9741364295 -0.5701926229
O 0.4345838969 0.5588570394 0.5363190571
H -2.13807527 1.0563731203 1.2388651085
H -2.8114028978 0.0553086056 -0.0605767322
H -1.8480543399 1.4973100476 -0.4572278177
H -0.7829337474 -1.0445604316 0.8953035366
H 1.8350901599 -2.4458625666 0.2754074959
H 1.5207377262 -2.4376725664 0.9514994003
H 2.6690552584 1.4968283107 0.2766981035
