13
0
C -2.0224761466 -0.8651278004 1.1170523812
C -1.0754144933 -0.2896106162 0.1191740314
N -0.117518521 0.4566902364 0.4537387032
C 0.7346062463 0.9615652735 -0.6097841407
C 2.1212930832 0.5280638535 -0.4353245255
C 3.2549992441 0.1694262126 -0.3029522995
H -1.7598795321 -0.5377906858 2.12116611
H -3.0468963994 -0.560548452 0.8886808044
H -1.9965437035 -1.9569509897 1.0728262146
H -1.2520424326 -0.5507354223 -0.9356744074
H 0.7070847978 2.0542575366 -0.574984839
H 0.3877493135 0.6546145923 -1.607290531
H 4.2631375436 -0.1476607385 -0.1775975015
