10
0
N 0.894655607 0.8467958738 0.1278982752
C -0.1338063084 -0.0280542048 0.0848374355
N 1.4492937903 1.0013411891 -1.0578269032
N 0.8100620254 0.2452280218 -1.8963884549
O -0.7147835304 0.0842002478 2.3523207417
C -0.9232886106 -0.3835233278 1.2617896257
C -0.1720264794 -0.4057631777 -1.2345160295
H 1.2408462803 1.3470315012 0.9307546878
H -1.7302991244 -1.1165841056 1.0861498592
H -0.8355866496 -1.0924860178 -1.7341852373
