15
0
O 3.009474401 -0.259719182 0.0193527249
C 1.820641209 -0.0705199652 0.0922732816
N 0.9217797641 -1.1888546687 0.1184868561
C -0.3619099162 -1.2381265505 0.4083079104
C -0.9339535645 0.1247306539 0.6677177502
C -0.2185289953 1.2810366769 -0.0105281424
N 1.2133829982 1.1282648778 0.1846658206
H 1.4250522392 -2.0552456118 -0.0239292269
H -2.8006936985 -1.7369437971 -1.8935508757
H -2.3059302791 -1.9133136881 -1.3611904193
H -0.8906339544 0.2293514088 1.7611186687
H -1.9943717889 0.124457783 0.4134885114
H -0.5269469844 2.2381233494 0.411350875
H -0.4624759231 1.2975461611 -1.0794407199
H 1.8262584929 1.9172745524 0.0699619854
