13
0
C 1.4315437681 0.1967094038 -0.0223726918
C 0.3371978269 0.9271660648 0.7569013742
C -1.02897257 0.3731395574 0.469577403
O -1.767196059 -0.1239317868 1.2705345832
C -1.4526456346 0.466897863 -0.954387533
N -1.7562894843 0.5547852191 -2.0571413805
H 2.4021362842 0.6405050174 0.1965712517
H 1.4702315379 -0.8579391239 0.2529634869
H 1.2678841237 0.2635531522 -1.0992563157
H 0.3281980203 1.9863163872 0.4795821389
H 0.4917545989 0.8545082287 1.8333363813
H -0.623947375 -2.7070546099 -0.88399523
H -0.974569037 -2.7060563731 -0.2263594681
