9
0
O -1.6972567702 -0.7647270072 -0.8537667925
C -0.9750847651 -0.0498330511 -0.0265132061
N -0.7871965175 0.1865660447 1.1823312806
N 1.6466488404 -0.6625407821 -0.0648737175
N 1.4701985651 0.5485265255 0.0549862783
C 0.069059357 0.9086443873 0.1379686293
H -2.2723880842 -1.3493142067 -0.3437329136
H 2.6610291503 -0.8177668268 -0.0866158151
H -0.0823037759 1.9762989163 0.0327542566
