18
0
C -2.0036391743 0.4595971664 -0.9502247733
C -1.4786152625 -0.0400519518 0.3809182195
N -0.0216643751 0.1783941281 0.5335577
C 0.4808338971 -0.1935283196 1.9247657271
C 0.8140592128 -0.6153311309 -0.373257301
O 0.4091835131 -1.6583804821 -0.8060402345
C 2.1563254529 -0.0227774286 -0.6971254674
H -3.0840921461 0.3198359177 -0.9896172955
H -1.5663897968 -0.0885068504 -1.785350393
H -1.8077581166 1.5267023294 -1.0864783745
H -1.6403364416 -1.1091842797 0.5018326552
H -1.9244727561 0.4671813229 1.2348577303
H 0.5125901706 -1.2850424181 1.9451144363
H 1.4923876364 0.2120323553 2.0090465671
H 0.1731183709 1.167419065 0.4156134376
H 2.1675499513 0.2069195366 -1.7652216713
H 2.9297473872 -0.76554105 -0.5105259436
H 2.3822794768 0.8761480902 -0.1267160188
