17
0
C 1.5580788186 -1.5194810685 -0.2793015073
C 0.5569861719 -0.6537579935 -0.3257835392
C -0.9192969109 -0.911020365 -0.0920265249
C -1.4748026085 0.4951178861 -0.2807157173
C -0.464453886 1.5186734131 0.1442628218
C 0.6294890852 0.8070486696 -0.6099288783
C -0.6469559474 1.2566288429 -1.2725920062
H 1.3910674962 -2.5667987732 -0.0567199154
H 2.5801963969 -1.2105711294 -0.4646470869
H 0.9226398192 -0.3769275107 2.5346742812
H -1.1092290545 -1.2993579052 0.9114293365
H -1.3265997323 -1.6186740748 -0.8177317572
H -2.5313494916 0.7111160308 -0.1835084121
H -0.4859110039 2.4014416257 0.7581210435
H 0.7533793976 -0.22392636 3.2452897048
H 1.5648193076 1.3087710141 -0.822201103
H -0.8595668579 1.867248698 -2.13210474
