11
0
N 1.7655187344 -0.6787795184 2.1276996356
C 1.2645811559 -0.5662016693 1.1005584533
C 0.6376543685 -0.3908581108 -0.2114586371
C -0.8799120984 -0.4712962837 -0.156345978
O -1.1057547015 0.9700093822 -0.0822381102
C 0.5558631935 1.0479823389 -0.7755227025
H 1.0895956641 -1.0927145989 -0.91286944
H -1.3215894373 -0.9523672064 0.7134828505
H -1.2977767451 -0.8682017103 -1.0790753348
H 0.9776363257 1.7454836564 -0.0415695768
H -1.6780034598 1.2642047201 -0.7955831601
