17
0
C 2.4484551918 0.1146553553 -0.290685544
C 1.191509746 0.4013851638 0.5310513832
C 0.3666804491 -0.8313032311 0.7409110026
O -2.4037670675 2.0148603628 0.3692201196
C -2.4730561827 0.8171967084 0.3869001128
C -1.6862806105 -0.0953741244 -0.5222504593
C -0.8602678928 -1.0629052526 0.2879300288
H 2.1870333107 -0.2271944197 -1.2940399559
H 3.0556444811 -0.6634637841 0.1773541585
H 3.0655776173 1.0093204643 -0.3865514426
H 0.6031227697 1.1886374 0.0565452242
H 1.4850244369 0.7910617964 1.5110345323
H 0.8485480753 -1.6240552356 1.3092590949
H -3.1306900381 0.3016795565 1.1182147276
H -2.4009489898 -0.6526926639 -1.1357586758
H -1.0795095774 0.5212385386 -1.1848376124
H -1.3268187191 -2.0125276346 0.5303453054
