15
0
C -2.3196293853 0.1812531891 0.5298278602
C -1.2084898052 -0.3239258316 -0.3767608695
N 1.1759927733 0.0513940748 -0.6373381636
C 0.1669175628 -0.1575870893 0.2484663591
O 0.3477299907 -0.2287300288 1.4476161254
C 2.5587252429 0.1633741438 -0.2374632476
H -3.2973311167 -0.0089325242 0.0848158908
H -2.2259996513 1.2547035754 0.7021073994
H -2.2733150237 -0.3137233748 1.4987234856
H -1.337882654 -1.3941982655 -0.5676558329
H -1.242270521 0.173409218 -1.3500484665
H 0.949182194 0.0850990536 -1.6141358953
H 3.0089855569 1.0666831874 -0.6526595214
H 3.1427798635 -0.7034881994 -0.5563435801
H 2.585670973 0.2210528715 0.8485604565
