14
0
C 1.7339382027 0.3576170249 0.6789433001
O 0.8016386515 1.3702212563 0.3925728099
C -0.8707778826 0.0653398412 -0.7915964687
C -0.9599222854 -1.3880249307 -0.6849167638
O -2.1269270807 -0.5850017265 -0.7229947156
C -0.5331914291 0.9348811138 0.3948643687
H 1.784017013 -0.3978374263 -0.1137156556
H 2.7086494817 0.8352984049 0.767774851
H 1.49639613 -0.144711755 1.6261581731
H -0.6338464951 0.4981735696 -1.7620416507
H -0.7571818141 -1.8631781333 0.2718555906
H -0.7923411951 -2.0065240525 -1.5618744607
H -0.7757655241 0.3915268115 1.3197292391
H -1.1478457728 1.8368390021 0.3640413825
