15
0
C 1.9441719512 -1.5442073853 -0.2923852656
C -1.0413177669 0.5919645418 0.3303403731
C -0.3003362417 1.5603172699 -0.545014817
C -2.1021113919 -0.11616476 -0.0417171594
C -0.5335057852 0.4394988526 1.6702509527
N -0.10307912 0.3367946479 2.7303983583
H 1.7458286608 -1.2644929525 0.7414916432
H 2.3932300085 -2.5357497655 -0.3181114844
H 2.6308747988 -0.8269024828 -0.7404385689
H 0.7432660678 1.2582541237 -0.6509359262
H -0.3094369229 2.5595166697 -0.1058771881
H -0.7563287309 1.6047943436 -1.5329996389
H 1.0093219389 -1.5569576775 -0.852206207
H -2.5038162747 -0.0220372781 -1.0432642344
H -2.5932711915 -0.8008871477 0.6367231625
