23
0
C 2.5356090473 0.3813757504 -1.1423568696
C 1.65163161 0.0468928772 0.0784522602
C 0.4844284179 -0.7064895987 -0.4401091593
C -0.6688055144 -1.1987804461 2.5889277762
C -0.65315516 0.1009706618 -0.9073511173
C -0.8552738818 1.5475145679 -0.4461020978
C -1.9687558676 -0.6770106281 -0.9508483275
H 2.7492298572 -0.5152784479 -1.7253499294
H 3.4797974033 0.8068683963 -0.803346303
H 2.0507655399 1.107635518 -1.797214104
H 2.2329523146 -0.5980394842 0.7411890836
H 1.4176957882 0.9762748925 0.6132579591
H -0.3910425679 -1.7025768877 1.6610702815
H 0.1045591097 -1.3681164261 3.336707454
H -0.7707331388 -0.1276808017 2.4139650257
H -1.616799625 -1.5961211124 2.9487617032
H -0.2659507098 0.1115170249 -1.9560034691
H -1.6715816246 2.0159087356 -0.998840415
H -1.1204035281 1.5774667485 0.6136586907
H 0.0347805945 2.161613336 -0.5863935829
H -2.7013634655 -0.1868370405 -1.5955624727
H -1.7971106495 -1.692248977 -1.3059787363
H -2.3984379495 -0.7385036592 0.05192535
