11
0
C -1.4487070719 -0.6051823707 -0.234407156
C -0.1671816926 -0.5840955537 0.6435007718
C 0.9171308867 -0.5947453329 -0.202862908
O 0.5106277076 -0.1319132555 -1.355074776
C -0.6215490999 0.5400079213 -0.5529483157
H -2.3326052193 -0.3677521519 0.3468549908
H -1.5334320018 -1.4631154153 -0.8992331486
H -0.1585550391 -0.5799804908 1.7205492126
H 1.9762526745 -0.7052481157 0.0118787355
H 1.8150537985 2.5374263793 0.4621305717
H 1.1470110575 2.3091643858 0.2129000219
