10
0
N 2.0046748282 -0.4044001378 -0.3377004555
C 0.7934728348 -0.3326454579 -0.0289147222
C -0.1876892119 0.7496036798 -0.3813739959
C -1.4036254341 0.2154567073 0.2891434122
N -1.2186505735 -0.8886115919 0.8846720705
O 0.1198465509 -1.2700569538 0.7184140924
H 2.4332199051 -1.2481982098 0.0348134364
H 0.1284550058 1.7185359358 0.007943423
H -0.3035848343 0.8485476686 -1.4619374456
H -2.3883690711 0.6618343598 0.3140831847
