7
0
O -1.8848790393 -1.1783508299 -0.1816267465
C -1.5553721752 -0.0638216837 -0.0453005394
C 0.7104888506 -0.4781070738 0.2507821324
O -0.2015107109 0.3795692419 -0.1201233637
C 2.0067283496 0.1182801072 0.0461592189
N 3.1118545218 0.4323208335 -0.0468068115
H -2.1814697965 0.8208754046 0.10859411
