16
0
C -2.3686001835 -0.3742280639 0.3271295468
C -0.9952493786 0.1762587709 0.2298641477
C -0.4589168751 1.4091576608 0.0437447571
C 0.9244482771 1.3951713572 -0.2155312789
C 1.3876764368 0.0662848701 -0.1876427142
C 2.5610236671 -0.5952956442 -0.2677416651
N 0.1387530051 -0.7656249867 0.0183721928
H -2.5060914725 -1.055098321 1.1758566693
H -3.0665503949 0.4511198243 0.4692313315
H -2.6920208339 -0.9132403358 -0.5754197409
H -1.056312766 2.3110551257 0.0902756547
H 1.5602858112 2.2542624603 -0.3411986981
H 3.4818161462 -0.047290352 -0.3976420718
H 0.2755360363 -1.3915536006 0.8073634257
H 2.6166786326 -1.6749363266 -0.2197535945
H -0.0123251078 -1.3419164383 -0.808689962
