18
0
C 2.0347599666 -0.5999393018 -0.7371033663
C 1.114780221 0.5571288917 -0.3745461933
C 0.3967035148 0.342807601 0.9540333937
C -0.6776494895 1.3442192972 1.2098099612
C -2.1408211086 -0.9217687106 -1.6394105011
O -0.7619358945 1.5327272817 2.5048518779
H 2.8027950483 -0.7533477478 0.025086184
H 1.4724766119 -1.5329034763 -0.8287904156
H 2.5407437165 -0.4226816879 -1.687538359
H 0.365699251 0.7055051399 -1.1557351715
H 1.6893844124 1.4865181941 -0.3251097669
H -0.1685218627 -0.6022527835 0.9032649176
H 1.0958173222 0.2450589721 1.794961054
H -2.1198627501 -0.0381759211 -1.0016556146
H -3.1239470251 -1.38784237 -1.5909500057
H -1.387647347 -1.6349101382 -1.3044131003
H -1.9276366988 -0.6329861806 -2.6678403848
H -1.4825858883 2.1490869399 2.6724124909
