17
0
C 2.1254701564 0.2537643786 -1.2097998891
N 1.6967391214 0.1156276468 0.2720893641
C 0.5020712729 -0.6947817603 0.5624756548
O 0.6653476539 -1.8298568152 0.9364291159
N -0.6817350556 -0.0800489207 0.3701368382
C -1.8862241817 -0.8786081324 0.50085856
C -0.8717482728 1.2311238975 -0.2178785623
H 2.4597460523 -0.3637700567 0.7411648907
H 2.2920798602 -0.7876283101 -1.5105364519
H 1.2195526595 0.5884755244 -1.7293047602
H 1.6402770357 1.0453549114 0.6743620244
H -2.6465276729 -0.304167085 1.0324901884
H -1.6585580258 -1.7834426767 1.0561690595
H -2.2752482388 -1.1538958176 -0.483874907
H 0.0479217863 1.8070705266 -0.2602446678
H -1.2459806848 1.141613447 -1.2414756131
H -1.6008144662 1.7873112425 0.3747551553
