17
0
C 1.8598430629 0.5752885648 -0.1664325007
C 0.575955134 -0.0489906248 0.2885287444
C 0.5361655903 -1.4430941039 0.7276727852
C -1.6100081806 -0.940175032 -0.6367318574
C -1.5984543485 0.5718432617 -0.5130204094
C -0.5975485662 0.8597709297 0.6101539052
O 0.0854261467 -1.1129908926 -0.6033758758
H 1.6668805633 1.2975925668 -0.9613920516
H 2.5613940766 -0.1741541334 -0.5320868297
H 2.3195659621 1.1048780151 0.6704094087
H -0.2827852271 -1.7713568229 1.3560819116
H 1.4448087845 -2.0364111691 0.7294235272
H -1.7342217196 -1.2261158785 -1.69014011
H -2.599019575 0.9090670126 -0.2318870221
H -1.2999691012 1.1339018409 -1.4130300328
H -0.2747459781 1.9020597978 0.6364442863
H -1.0279386239 0.6026046677 1.5781351209
