14
0
C -1.5971556898 -0.7338348465 0.4990630822
C -1.4784177006 0.4954778726 -0.2732296939
C -0.1621285402 1.1636288418 -0.2060240317
N 0.9816105896 0.599997033 0.4972168716
C 1.656175842 -0.5391756623 0.1455434362
O 2.3851996028 -1.1379109479 0.8852279768
O 1.4538187939 -0.9674262071 -1.1229195281
H -0.9074072291 -0.8998953287 1.334757029
H -1.2982539486 -1.4535127013 -0.2911225453
H -2.624464503 -0.9943928191 0.7492116698
H 0.9952840495 -0.3121403826 -1.6556351646
H -0.4257539666 2.1186424344 0.2723327324
H 0.119826204 1.4971668558 -1.2135586248
H 1.1291224964 0.8524988581 1.4589787905
