15
0
C 2.1556252301 -0.2893408613 0.5082224564
C 1.0643627941 -0.6579162069 -0.4452733549
C -0.3113300213 -0.3514174434 -0.2081894464
O 0.0387883667 -1.6216293254 0.0614038635
N -1.2896545448 0.4106325236 -0.1701371499
C -2.5579036323 -0.1260152397 0.2950210743
H 2.8927882474 -1.0904398201 0.5799411571
H 2.6581602253 0.6100717756 0.1477011559
H 1.7523574571 -0.0855016099 1.4996511849
H 0.731053856 2.9962983495 -0.8526842886
H 1.3630256122 -0.8926677412 -1.4635047886
H 0.1845496135 2.5069373324 -0.7072548308
H -3.3117958816 0.0321103976 -0.477554923
H -2.521115008 -1.191097339 0.5427335306
H -2.8753983143 0.4308492081 1.1781603593
