11
0
O 2.0839008531 0.1818685724 -0.5011321156
C 0.882886504 -0.2680092201 0.0620575928
C -0.0589837331 -0.9776885345 -0.8898369252
N -1.2253141719 -0.4755293315 -0.551031779
C -1.1907016739 0.5813773476 0.4137464057
C 0.0704564395 0.7863721423 0.7617984249
H 2.2660692598 -0.3925823015 -1.2500889357
H 1.0712364786 -1.0590651472 0.8196499054
H -2.0860522654 -0.7723589817 -0.9832460774
H -2.1029794469 1.0622512523 0.7350944754
H 0.4427017561 1.5080422017 1.4713210287
