13
0
C 2.4148868133 -0.08070482 -0.2407514577
O 1.3779006853 0.6086287707 -0.817392003
C 0.1737909415 0.3987430612 -0.5047508657
C -0.224089799 -0.5787389519 0.5419179049
N -1.6248652328 -0.254980236 0.6252872728
C -1.8881761461 0.7383285423 -0.2578926968
N -0.8698848257 1.1631974012 -0.9408857335
H 3.3227945631 0.1179942995 -0.7921751387
H 2.1842535416 -1.1197619491 -0.0192615413
H 0.3771928787 -0.3661188458 1.4507243584
H -0.0331716521 -1.6277079145 0.2768844745
H -2.3040536641 -0.7302506471 1.1868526783
H -2.8880221035 1.1392602899 -0.362162252
