18
0
C -1.7940728318 0.3786334429 -1.317222915
C -0.6595607939 -0.2972146253 -0.6123572317
C 0.1921295208 0.2427855145 0.2648730511
C 0.2015327793 1.66824999 0.7287083911
N 1.1496014561 -0.5478182077 0.9437943424
C 2.1164726236 -1.0474465243 0.306743796
O 2.3821077711 -0.9394993326 -1.0038048073
H -1.8120065155 1.4556102921 -1.1576467023
H -1.7418472424 0.2034713576 -2.3947124196
H -2.7524449982 -0.0237292752 -0.9774774474
H -1.2858607455 -1.9879470954 2.7604818791
H -0.5670067284 -1.3669616626 -0.7872344827
H 1.6533727485 -0.4494858814 -1.4145579374
H 1.1898569756 2.109037501 0.5783237788
H -0.5351524057 2.2820618201 0.216123011
H -0.0004653899 1.697933383 1.8014276805
H -0.6651675705 -1.697139487 2.4635394224
H 2.8690733469 -1.6398212096 0.8188035911
