13
0
C 2.4845236678 0.0651060378 0.1486466104
C 1.0283894754 0.2873623299 0.0403416373
N 0.3646930733 1.3021346242 -0.2643353216
C -1.0288194348 0.8781638425 -0.1979868461
C -1.0530410682 -0.5658146696 0.2032791191
O 0.2154052429 -0.862433888 0.3313507947
H 2.7370985144 -0.2644828411 1.1573832176
H 3.013271456 0.9861248561 -0.0815197094
H 2.7913707653 -0.7198970901 -0.5440038211
H -1.6001294279 1.475245997 0.5200952181
H -1.5323671079 0.9993991111 -1.1628995609
H -4.202655288 -2.092591586 -0.7538068983
H -3.5633488683 -1.8375217239 -0.46211844
