15
0
O 1.7596670915 0.759649865 -0.2627725718
C 0.4394921461 0.2461359411 -0.2566185564
C 0.3230468614 -1.2964552714 0.0121634971
C -0.1550937272 -1.3763844793 -1.4186367355
C -1.0438970497 0.911094075 1.6758749026
C -0.4491419297 1.1719933778 0.5224618959
C -0.0290954299 -0.0764816294 -1.6592712594
H 1.9957278127 0.9858369064 0.6404005358
H -0.3912027984 -1.6134709672 0.7738761723
H 1.2930781234 -1.7570579533 0.2039459896
H -0.4917762099 -2.2115685299 -2.0198245311
H -0.9631776599 -0.0544824024 2.1615393401
H -1.6430130541 1.6603239958 2.1788266302
H -0.549816748 2.1595670479 0.0772651515
H -0.1946024283 0.5593990236 -2.5196564611
