16
0
C 1.8902958848 -0.4717704297 0.0450093052
C 0.5293028414 0.1090632811 -0.3300133041
C -0.6149369341 -0.7992627679 0.1227325325
C -2.0024600804 -0.2563765934 -0.176389733
C -0.5225510685 2.2749545323 0.7436007162
C 0.3605068779 1.4953729224 0.229727774
H 1.9887747958 -0.5562579018 1.1294599988
H 2.706776054 0.1528665154 -0.3216984595
H 2.0093016989 -1.4678810286 -0.3850588333
H 0.4829533013 0.2047392242 -1.4213797199
H -0.4837407058 -1.7675086774 -0.3699882364
H -0.511771486 -0.9789901459 1.1975931259
H -2.7717798902 -0.972759733 0.115289111
H -2.128423092 -0.0423336045 -1.2403519849
H -2.2012410964 0.6694849918 0.374495611
H 1.2156838995 2.2024524149 0.2612910963
