17
0
C -1.4508925235 0.126441149 1.2921452551
C -1.866840245 -0.6894402199 0.0875667163
C -1.7889537616 -0.1433019984 -1.3069590526
C -0.9053518145 -1.0318847933 -1.010751135
C 2.4671800342 -0.5932718747 0.7294239748
C 2.1814034874 0.4151011486 -0.0390147143
C 1.8804758829 1.420426117 -0.8048870483
H -2.2907980569 0.706916439 1.6832774626
H -1.0942165919 -0.5194166294 2.0991745707
H -0.6477549388 0.8200252671 1.0341328065
H -2.6596782523 -1.4083073848 0.3042705825
H -2.2070314657 0.5451258894 -2.0209621967
H 1.0056205297 1.3807783817 -1.4441121592
H -0.0476745445 -1.6174873485 -1.2922772708
H 3.1147290196 -1.3922464402 0.3883701839
H 2.0623084427 -0.6572307724 1.7326181783
H 2.4874067982 2.31781107 -0.8158911538
