13
0
C 1.5524150288 -0.3269985004 -0.1890225505
C 0.3001857665 -0.5304656394 -0.9778542103
C -0.7390525839 -1.255862886 -0.5884552914
C -1.1800299291 1.5008779145 1.0975829125
O -0.2818922749 1.7419006844 1.8515660333
H 1.7015438124 0.732172333 0.0367769676
H 1.5220004131 -0.869800598 0.7561714776
H 2.4252691269 -0.6618227669 -0.755049606
H 0.2559684828 -0.0336865763 -1.9449344453
H -1.6193973319 -1.3655805006 -1.210528069
H -0.7388135112 -1.777390249 0.3635347962
H -1.9881184533 0.7905386653 1.3543017113
H -1.2551545462 1.9776991197 0.102422274
