17
0
C 2.3099231878 -0.0344201766 0.6830758169
O 0.9568613049 -0.3947108157 0.5470720406
C 0.5487324381 -0.5733659928 -0.7981763104
C -0.9559408744 -0.7802245579 -0.8318377978
C -1.7954282802 0.4435814863 -0.5624191881
C -1.8689859408 1.1097751027 0.5887680703
O -1.1714560699 0.8743781773 1.7159115754
H 2.9662272604 -0.8106790815 0.2727726881
H 2.5142141322 0.0783826917 1.7465899051
H 2.5197730236 0.9135999462 0.1743855624
H 0.8310975958 0.3067787142 -1.3906599952
H 1.0659099103 -1.4486046136 -1.2140357211
H -1.2125490779 -1.173068654 -1.8174035024
H -2.4363634587 0.7977665161 -1.3599582059
H -1.1941907887 -1.574907038 -0.1152072012
H -2.5574480178 1.9395195844 0.7076815829
H -0.4086503446 0.3094857111 1.5002056803
