13
0
C -0.8720578072 1.3867789908 0.1974715437
C -0.2209395393 0.0545746587 0.0718830052
N -0.927323062 -0.9959608263 -0.1777238022
O -0.4945264596 -2.1902552241 -0.3015771187
C 1.2601352149 -0.1486742457 0.2229446773
O 1.8134969218 -0.8669659101 -0.8458666269
H -1.9575042925 1.3193327444 0.1030384759
H -0.6442810453 1.8348901166 1.1678142305
H -0.5022908191 2.0689343075 -0.5715042684
H -1.9351399812 -0.8696597529 -0.3010461856
H 1.4361661889 -0.6549929377 1.1849155192
H 1.7583685626 0.8210997305 0.2625595377
H 1.293091118 -1.6858796516 -0.8942769877
