15
0
C 1.6802286726 0.9207568095 0.5604450977
C 1.0175620032 0.2247141153 -0.5856605024
N -0.0333045686 -0.4583481958 -0.4752783894
C -0.842318868 -1.2316282876 0.1441676283
O -2.1068872258 -0.8510405231 0.2595328602
C -2.4966823758 0.4346773437 -0.2277231186
H 1.2750958657 0.5648423718 1.5072195698
H 2.7574323852 0.7440641365 0.5383671975
H 1.5274019055 2.0017838004 0.4956784746
H 2.1762630134 -2.568452981 0.8765214682
H 1.461973148 0.3176608055 -1.5759474223
H 1.4341694905 -2.5067968068 0.7991609349
H -3.564304293 0.5236663267 -0.0422709748
H -2.2938596558 0.5109423864 -1.2983075764
H -1.9630374971 1.2277686984 0.3005707529
