14
0
C -2.2738760055 -0.0076835159 -0.2436266589
C -0.7925313121 -0.3303030734 -0.2191929116
N -0.0003785573 0.8928695235 -0.0965569466
C 1.3106127873 1.0418588399 -0.0361664594
N 1.9705228434 -0.1582835171 -0.0994043676
C 3.3132915502 -0.1990282992 -0.0513987244
N 4.4585670297 -0.2860845766 -0.0143089079
H -2.5189851671 0.6398026502 -1.0877814876
H -2.5809252653 0.4922511349 0.6770709443
H -2.8602052418 -0.9211233582 -0.3396031099
H -0.511976905 -0.8547443588 -1.1389925096
H -0.5715794881 -0.9939645418 0.6235856984
H -0.5239555596 1.7509429897 -0.0543060498
H 1.5206072914 -1.0635208973 -0.1811175092
