14
0
O -1.15462107 -1.2008468845 1.3918068683
C -1.0988923871 -0.173817862 0.4556971088
C -0.6122276718 1.1114988727 1.0832372477
O -0.3118132785 1.1873391965 2.2425170501
C 1.9968640022 -0.0198065562 -1.1435923304
N 1.1665699269 -0.5911220094 -0.392463657
C -0.2313738065 -0.5348462172 -0.7556423225
H -0.7194713805 -0.8789310491 2.1916292433
H -2.112003386 0.0324515496 0.0758357927
H 1.7114397287 0.5153533367 -2.0594981596
H -0.5460298724 1.9894091617 0.4115015599
H 3.0545953285 -0.0495168365 -0.8891809652
H -0.4263359426 0.1709215831 -1.5783615476
H -0.5442741912 -1.5302342854 -1.0783848885
