20
0
C -2.327213338 1.3322261371 0.2216756657
C -0.8459172422 1.1552569081 0.1279255265
N -0.2301412181 -0.0397130921 0.0357939611
C -1.05820596 -1.2416839993 0.1645214579
C 1.0776140377 -0.2266534806 -0.1671755097
C 1.6804717396 -1.5962428048 -0.1384086171
C 1.9106167045 0.9912727315 -0.2866807728
H -2.7724064662 0.9545073057 1.1513319671
H -2.5383339764 2.4015986138 0.1965170815
H -2.8874233086 0.8871701658 -0.6105675601
H -0.2181350424 2.0237835418 0.0459639492
H -1.1196350004 -1.752834574 -0.7957165248
H -0.6180015492 -1.9144311726 0.8969316225
H -2.0555198649 -0.9738865699 0.4899237389
H 2.7189642944 -1.529923613 -0.4614794241
H 1.6929106558 -2.057693379 0.8599650335
H 1.1903793893 -2.3090951963 -0.809650927
H 1.562128938 1.6419691946 -1.1041501198
H 2.9524488792 0.7362617086 -0.4740077676
H 1.8688863275 1.6131435747 0.6233852191
