10
0
N 1.7168038634 0.0829641997 -0.1418393949
C 0.7647891495 1.0213422966 -0.0359415937
C -0.0821829889 1.8678794196 0.0629176944
N -1.7516869723 -1.0274252579 -0.5746491625
N -1.2290106807 -1.5887967194 0.3819152919
N -0.8023897685 -2.2030642767 1.2166506779
H 1.8615267429 -0.3045165911 -1.0592276453
H 1.7599895705 -0.5953983929 0.6009991139
H -0.7566881775 2.6830184608 0.1716693054
H -1.4487097384 -0.0497351386 -0.5860262869
