14
0
C 1.3747287535 1.0695079817 -0.3746107012
C 0.2261528438 0.9280806173 0.5163049066
C -1.1033169618 0.4099541615 0.0143810738
C -0.9297570216 -1.1139928398 0.043761314
C 0.4539652999 -1.3603013156 -0.5265243047
O 1.2261025836 -0.1298799472 0.4108656607
H 1.2326100123 0.8755283364 -1.4308054057
H 2.2275049284 1.6689731665 -0.0763628121
H 0.2648095144 1.4181115119 1.4828091841
H -1.9170445318 0.7563976409 0.6523765458
H -1.286658534 0.7527414394 -1.004303521
H -1.1101277192 -1.4789138876 1.0667909625
H -1.6622487398 -1.5925353165 -0.6111060794
H 0.9248205725 -2.2045115489 -0.0041518236
