11
0
O 1.5334171237 0.6367057373 2.8117605451
C 1.0892279838 -0.3375729791 2.473055027
C 0.725686272 -0.7153467385 -1.0790952286
C 0.0795709294 0.4367333849 -0.9591943366
N -1.7535442426 -0.1386333699 0.5860855395
C -1.2469008031 0.5857071277 -0.3198186401
H 1.6946615555 -0.7709379311 -1.5585894091
H 0.304223126 -1.6473498596 -0.7172531656
H 0.5111827872 1.3425034305 -1.3747608562
H -1.104516331 -0.8739481814 0.8710784777
H -1.8474304009 1.4267443793 -0.674405953
