14
0
C -1.98980888 -1.0335626432 1.1877716044
C -0.1190165013 1.2206600717 -0.7618886979
O -0.7645694975 2.1201997428 -0.4803204678
C 0.6446531799 0.1279005249 -0.9804702297
C 2.1670250732 0.432734986 -0.7797512157
C 1.4922125564 -0.2464340587 0.3143176287
H -2.0498951427 -0.0366405066 1.6242722606
H -2.4852545847 -1.0346172139 0.216437597
H -2.4954487753 -1.7407689128 1.8433950126
H 0.2675374077 -0.6156931601 -1.6715304274
H 2.4613589672 1.4846146522 -0.7752465885
H 2.7300521754 -0.161934364 -1.4951095968
H -0.9443275067 -1.320773079 1.0735607134
H 1.2487645285 0.4377429604 1.1347164071
