17
0
C -0.5362285062 0.2504305477 1.0450162247
C -0.675609172 -2.869495181 -1.5779273962
O -0.0581600488 -1.8491619661 -1.6728654407
C 0.9971056306 0.1060707984 1.0864313639
C 1.4714147106 1.3661928619 0.4115164416
C 0.4876243699 1.9903755188 -0.2204842323
C -0.8230819778 1.2614720503 -0.08163761
H -0.8880570516 0.6594293106 1.9950541947
H -1.0431898747 -0.7031442267 0.8935621085
H -0.4733952634 -3.6029269642 -0.7744578151
H -1.4807484393 -3.1328106307 -2.2896528454
H 1.3807111617 -0.0026604836 2.1038155904
H 1.3315589754 -0.7695545541 0.5200413892
H 2.5076474836 1.682773127 0.4120644889
H 0.6011469572 2.8915379946 -0.8110915439
H -1.0725931577 0.7578009658 -1.0217842635
H -1.6570187975 1.9267418314 0.1548293454
