11
0
N 1.8244910051 -0.1024739479 -0.1416453556
C 0.4959127677 -0.1930764835 0.0251489155
C -0.4908630283 0.8863169713 -0.3330480511
N -1.7654691121 0.3041498158 0.0407552063
C -1.4554065769 -0.8493914367 0.4970939326
N -0.1060299179 -1.225446529 0.5215534995
H 2.4021321142 -0.8823781581 0.1133442556
H 2.248440527 0.7073363644 -0.548358318
H -0.3081619828 1.8126256176 0.2185576759
H -0.4699246946 1.125692847 -1.4000735542
H -2.2010611014 -1.5469170606 0.8626937936
