16
0
C 1.2225672376 -1.9726599786 -1.4539255932
C 0.2264253344 2.5230232702 1.4967135249
C 0.1481202716 1.4058071422 0.795877706
O 0.1452772808 -2.293430823 -0.5980244568
C -0.9821116614 0.4190240383 0.9183195767
C -1.6292803597 0.1622761331 -0.3679712302
N -2.1105621003 -0.0624146349 -1.38528689
H 1.1117979475 -0.9774398713 -1.8988728673
H 2.1307230671 -1.9853062706 -0.8514279328
H 1.3356607639 -2.7042560292 -2.2609476066
H 1.0695106317 3.1937883849 1.3908206703
H -0.5462144813 2.808516521 2.2024805585
H 0.9310638853 1.1416333828 0.0920121272
H -0.6728040782 -2.1618321278 -1.0837166487
H -1.7337448639 0.769996317 1.6273710063
H -0.603355875 -0.5458234545 1.2679420561
