16
0
C -1.8169550431 -0.4634878054 -0.4862208835
C -0.3431752959 -0.7629688399 -0.3193122945
O 0.4527762621 0.0978543832 -1.142600967
C 0.195223891 -0.5227996309 1.1039132015
N 1.4880744194 0.1276459953 0.9079611718
C 1.3158047806 0.8482364992 -0.3148255169
O 0.7347736368 2.0851951301 -0.0103052149
H -2.4145449968 -1.1326156182 0.1375782702
H -2.1244918358 -0.5986724292 -1.5236660288
H -2.0270110079 0.5662418739 -0.1908457181
H -0.1343113301 -1.789422498 -0.6413115276
H 0.3551051218 2.4259843882 -0.8238281929
H -0.4662871452 0.1488011231 1.6545619752
H 0.3040949473 -1.4424793986 1.6766955155
H 2.2169747278 -0.5609697388 0.7809068928
H 2.2620138682 0.9774055661 -0.8490286828
