19
0
C 2.3017798704 0.5312038757 1.516874997
C 0.6867940254 -1.2706580307 -1.5972535495
C 0.1058630387 -0.0072001803 -1.4841663943
C -1.4170863921 0.2982309815 -1.6528434737
C -0.9758862714 0.2418057887 -0.2825733065
C -1.3383614586 -0.8687039025 0.6614164593
O -0.7873045728 1.4644956555 0.3166177758
H 3.3004667897 0.3825266993 1.923329599
H 1.5773633266 0.3892741206 2.3211521394
H 2.2295870025 1.543335945 1.1183990089
H -0.106929948 -2.0322699955 -1.4879017409
H 2.1255182779 -0.1896453873 0.7182865735
H 0.7190106276 0.8841638217 -1.5759537815
H -2.0070688819 -0.51959151 -2.0425904143
H -1.6208992562 1.275501756 -2.0694798199
H -2.269822139 -0.6002508018 1.1639332304
H -0.5636844156 -1.009345006 1.4176532164
H -1.4820672582 -1.812500178 0.1409613628
H -0.1659963651 1.3631473482 1.0443891177
