18
0
C -2.3734075347 -1.0368316483 0.6925251426
C -1.2211707794 -0.128264294 0.266709028
C -0.9548285256 -0.1983352817 -1.2065432016
C 2.3007511809 1.3849581882 0.539786187
C 0.1927828039 -0.5724661971 -1.7529054335
O 2.2828904843 0.0366699233 0.9665058115
H -2.1425203225 -2.0819727697 0.4770270596
H -3.2941274662 -0.7838648682 0.160921228
H -2.570235944 -0.9465498355 1.7623810288
H -1.4681057943 0.905747594 0.5346925201
H -0.3111165441 -0.3887904222 0.8127507315
H -1.787090767 0.069959932 -1.8561263335
H 2.4246013041 2.0792039416 1.3778464191
H 3.0885202863 1.5721206305 -0.1977085927
H 1.3396668578 1.58030268 0.0653680796
H 0.3194324996 -0.6113472798 -2.8286125006
H 1.0434606271 -0.8477836732 -1.1370615852
H 3.120675634 -0.1694196198 1.3817644114
