15
0
N 1.5867035772 0.6959306943 -0.9702916826
C 1.5450164448 -0.491200058 -0.3378371895
O 2.4219966347 -1.3260854068 -0.3880835529
C 0.3124389337 -0.7631492892 0.5247036813
N -0.8989797243 -0.0370052289 0.1153889728
C -1.0368537467 1.1960713559 0.6149274588
C -1.6641267372 -0.6507064463 -0.7673530607
H 2.3841600821 0.9040255192 -1.5432590328
H 0.8479746915 1.3709080966 -0.8458499133
H 0.1195125324 -1.8312418001 0.48375846
H 0.5457868347 -0.4960606908 1.5549900007
H -0.4245463056 1.4725742389 1.4559759098
H -1.904629292 1.7698504035 0.3306271292
H -2.5489826081 -0.1514931379 -1.1281306524
H -1.3589593173 -1.6141132502 -1.1363595284
