10
0
N 2.4025433426 0.6761136312 -0.522088066
C 2.118740918 -0.547508943 -0.1488677399
C 0.5838853711 -0.2399794828 0.0627499044
C 1.269135817 0.957354925 0.252615934
O -1.8969158198 1.0975195885 0.0183952965
C -1.8309084002 -0.0945316013 -0.1341078753
C -0.5678391446 -0.864375571 -0.1085016624
H 1.2894099468 1.6024427722 1.1255923665
H -2.7446272305 -0.6956437324 -0.298861605
H -0.5943898005 -1.9379265864 -0.2448755528
