14
0
C -1.1111179455 -0.6885047776 1.7958574266
C -0.5190499381 -0.5593850925 0.3958422802
C 0.7956658844 0.0866370867 -1.9242909415
C 0.3837513968 0.6474346448 0.3308407675
O 1.0333666826 0.886383262 -0.9518038058
C 1.5522381974 0.5200768773 -3.0851856999
N 2.0694097608 0.7082014078 -4.0972777362
H -0.3323233408 -0.8096237374 2.552329732
H -1.7629151927 -1.5601210551 1.8531139921
H -1.7061445535 0.1873321983 2.0645835664
H 0.0449608923 -1.4558722428 0.1328077475
H -1.3103459569 -0.4679929847 -0.350006075
H -0.1576535066 1.5728511952 0.5341729784
H 1.2106246197 0.5744592183 1.0391217678
