12
0
C -1.5230712992 -0.4089844492 -0.5110316756
O -0.7139657552 -1.3148621784 -0.9512377896
C 0.580244302 -1.5027921341 -0.8119569026
N 1.4555141101 -0.7645287534 -0.1448383613
C 1.2826341873 0.2970457673 0.5596183827
H -1.2019188106 0.4045767561 0.1087888612
H -2.5441652248 -0.5406743283 -0.8322946617
H -1.5942585345 2.7407240895 1.5059937448
H 0.9049540991 -2.3822870053 -1.3437542816
H -1.096174255 2.9211608916 0.9819188866
H 0.3431746151 0.7974654261 0.7629371701
H 2.1661855655 0.7365179181 1.014342627
