14
0
O 2.1563424784 -0.2607505634 -0.5382579704
C 1.1138297094 0.6985976769 -0.4928263176
C -0.2320812524 0.1110343866 -0.1772907219
C -0.5162541142 -0.3093950642 1.1980296905
N 0.1754669478 -0.1053488054 2.2429261075
C -1.1201037752 -0.0553771735 -1.1685670058
O -2.3626302251 -0.5544194591 -1.1033708167
H 2.1276674757 -0.7932109665 0.25942425
H 1.35620239 1.4931161764 0.2261648751
H 1.0942407238 1.1640340984 -1.4783825842
H -1.4276950678 -0.8950703331 1.3602249132
H -2.5957214743 -0.7879424535 -0.2006697507
H 1.0049133337 0.4536042355 2.040803425
H -0.8771931497 0.2316582451 -2.1858700939
