16
0
O -2.1850794189 0.2956320515 1.6502980007
C -0.4921161274 0.2674836393 -1.2671360337
C -0.0353194266 -1.1318573681 -0.9514141672
C 0.8489127055 -0.9396270591 0.2974788762
C 1.2185624736 0.5578205119 0.3200550239
C 0.1831969432 1.1809809793 -0.5794552787
H -1.7470243509 0.8073273373 2.3315617566
H -1.2538091781 0.4870975328 -2.0059585099
H -0.8672943375 -1.8149416134 -0.7681468281
H 0.5262782844 -1.5412050669 -1.79826211
H 1.7259751659 -1.58650667 0.2960577235
H 0.2637367562 -1.1811802682 1.1861935938
H 1.2107994696 0.9754843862 1.3300160707
H 2.2213848108 0.7410553005 -0.0811214753
H -1.7349571738 0.5351145501 0.8322242458
H 0.052686404 2.2522827568 -0.6800478883
