15
0
O 0.1021975175 1.3824780077 0.6635245594
C 1.3147816267 1.0248757542 -0.0095119127
C 0.9349939349 -0.1458708465 -0.9066831393
C -0.1347129615 -0.8324131108 -0.0740337053
O 0.5148380617 -1.6997915033 0.8447380867
C -0.7644357955 0.3398145384 0.6418561671
C -1.9658076854 0.3778354375 1.2037847719
H -2.3136872578 1.2512533713 1.7377202717
H 2.0619534802 0.7363694048 0.7342741838
H 1.6654843203 1.9035573182 -0.5491846745
H 1.7665474996 -0.813408512 -1.1254165197
H 0.5052445574 0.2132753457 -1.8435071061
H -0.8649332275 -1.3834437611 -0.6732964237
H -0.0732484296 -1.8370468701 1.5908946375
H -2.623378641 -0.4759925739 1.1191518035
