16
0
O -1.8594832955 0.8017508343 1.8471569292
C -2.5543689744 -0.1622743035 1.3479250514
C -0.3200090821 -0.3143844874 -1.4452159692
C 0.7136920788 -0.0096512432 -0.4489704485
C 1.5117920086 1.0960924902 0.0546130888
N 0.6225756536 0.3179902629 0.952524872
C 0.840613209 -1.272564682 -1.190631082
H -0.9063252528 0.7071775628 1.5328922441
H -3.5823684536 0.0054843573 1.7531654328
H -1.290104775 -0.608713306 -1.0607103477
H -0.3191207185 0.2453434512 -2.3718913161
H 1.1923552173 2.1162416142 -0.1203280914
H 2.5793413126 0.9583110944 0.1818486444
H 1.1597698452 -0.3306606824 1.515428044
H 1.6143346111 -1.3586496411 -1.9432140518
H 0.6050476159 -2.1903493216 -0.666
