14
0
O 2.0523919439 -0.2772362202 3.0480714374
C 2.2000121689 0.3081992522 1.7722197456
C 0.9520139198 0.3638770972 1.0063763023
C -0.0788283223 0.4329480657 0.3978695678
C -1.3278777221 0.479665941 -0.3567049428
C -1.7853398427 -0.5092241032 -2.5178415809
N -1.4605783845 -0.6570751209 -1.2689654953
H 1.361026245 0.1921481703 3.5190804058
H 2.6175967917 1.319941388 1.8412927561
H 2.9259745615 -0.304685473 1.2359793988
H -2.1737243534 0.4890398265 0.3364812741
H -1.819901522 -1.5237267655 -2.9537765016
H -1.3868238653 1.3748280067 -0.9756254613
H -1.2682056186 -1.5535860647 -0.8280269061
