11
0
C 2.7975916986 -1.3782246762 0.1603674539
C 1.8194501359 -0.818834211 0.5670863955
C -0.1243709953 0.5884247551 0.3661122688
C 0.6610283654 -0.1648557179 1.0857265795
N -2.5466493361 -0.1733408073 -0.6535624353
N -1.9690347315 0.7847122148 -1.1704974786
C -0.8904430318 1.3152618596 -0.3959631616
H 3.6649300376 -1.8710904094 -0.2105710539
H 0.4292428018 -0.3106101728 2.1370944243
H -3.262337696 -0.4766197514 -1.3249997409
H -0.6967272485 2.3668499164 -0.5676392519
