15
0
C -1.3190519158 -0.5941941653 -0.4172999705
O -0.7494789956 -1.8211415122 0.1045550878
C 0.5232929654 -2.0392693064 0.2367680164
C 1.4598989806 -0.9957952688 -0.2175242698
C 1.4195917248 0.3418952814 -0.1336879624
C 0.2876551881 1.243028503 0.236897845
C -1.0409710235 0.5595057886 0.5291351695
H -0.9167617502 -0.4128848361 -1.4173529692
H -2.3831902299 -0.8093076555 -0.4947050025
H -1.06057738 0.1662646018 1.5483044694
H 2.4168808996 -1.4274131285 -0.4967399931
H 2.341841191 0.8701406619 -0.3674620778
H 0.5852722927 1.8673265502 1.085643008
H 0.1663471239 1.944300461 -0.5980891749
H -1.8492420712 1.2911540248 0.462780824
