21
0
C 0.6511260813 1.4526597016 0.0989749544
C -0.8727978511 1.4175774215 0.1795596854
C -1.491757852 0.0681675678 0.5339596387
C -1.2916173482 -1.0318877607 -0.5126128386
C 0.1081575022 -1.5806097177 -0.6001879207
C 1.2059328063 -0.8689240186 -0.8256996558
C 1.2578312711 0.6212211392 -1.0346860748
H 1.0767506493 1.1229649 1.0526160205
H 0.9604469185 2.4933676 -0.0354938651
H -1.2858182253 1.7575792117 -0.7784284315
H -1.1957198543 2.1518086611 0.9235749691
H -1.0966559753 -0.277003527 1.4951653885
H -2.566698762 0.2137327367 0.6763674847
H -1.977614036 -1.852665808 -0.2939144439
H -1.5926748691 -0.6438075914 -1.4943992346
H 0.2186709808 -2.6534857625 -0.471567358
H 1.4889202237 -1.5145016361 2.9666652387
H 1.3430347415 -1.4089996033 2.2423824682
H 2.1527604041 -1.3992575685 -0.8687623484
H 2.2987748155 0.920113813 -1.1730635891
H 0.745446379 0.8757072412 -1.9716480876
