14
0
C 1.3190949021 1.23078594 -0.1173662559
C 0.2852376629 -1.7661845137 0.1450416422
O -0.0237733337 -2.5712469198 1.1190784236
C -0.9050507911 -0.9139965337 -0.2119337128
O -0.6821818672 0.1558555183 -1.0681712839
C -0.157950875 1.3182809977 -0.4521194984
H 1.8960953596 0.9769513724 -1.0067107785
H 1.5264647767 0.4697256409 0.6363335174
H 1.6654765689 2.1938091892 0.2647673826
H -0.9300261546 -2.4514176958 1.4760830549
H -1.434652087 -0.5853889289 0.7081854707
H -1.576632954 -1.6060252255 -0.7434803604
H -0.7458539388 1.5473475409 0.449209973
H -0.3351882687 2.1212216176 -1.1693085744
