14
0
C -2.5495591577 0.1910428861 0.3332247243
C 0.6776723199 -1.1984662141 -0.5167296132
C 0.966438078 -0.023554799 0.3624385709
N 2.1213676132 -0.7381578674 -0.2082136999
C 0.8809061845 1.3544317904 -0.0859968762
N 0.7810315024 2.4324603701 -0.4690745634
H -2.2088666866 0.9049425156 -0.4158811008
H -2.4048726753 0.6155783349 1.3265592163
H -3.6087982721 -0.0118215315 0.1818318147
H -1.9841199317 -0.7362069967 0.2425519886
H 0.4872884335 -0.8353343696 -1.5310497925
H 0.8448637193 -0.126207732 1.4369338657
H 2.684886391 -0.2066153708 -0.8599823473
H 2.6581324819 -1.3258210162 0.4117378128
