14
0
C 2.1979289212 0.0205767696 0.2860186065
N 1.2137674351 0.3672045559 -0.7058105989
C -0.1063143526 0.1839381604 -0.4340896595
N -1.0330549593 0.7798554864 -1.3470016193
N -2.2005558672 0.5159376481 -1.0166721859
C -2.2019081483 -0.3132609767 0.1867925289
C -0.7673611249 -0.4832194287 0.5240676563
H 2.1652966228 -1.0538267568 0.483606923
H 3.1907968515 0.2609405957 -0.0898573872
H 2.0426278454 0.5470127678 1.2366465218
H 1.4075372854 1.1432367641 -1.3145359521
H -2.7367022934 -1.2385027302 -0.0546539945
H -2.7989309577 0.2059462062 0.9440809899
H -0.368364258 -1.0307920617 1.3614131711
