11
0
C -1.6715563421 -0.3592924916 -0.0208062764
C -0.2055688214 -0.1590356031 -0.0414887866
C 0.601225186 0.8659546253 0.2432968586
N 1.886876126 0.3820809442 0.0114634226
C 1.9003379777 -0.8927803825 -0.4017891567
O 0.5831782859 -1.2118988098 -0.4289934061
H -1.9384116813 -1.1718750374 0.6569625158
H -2.1713552358 0.5493362793 0.3114425918
H -2.0389877551 -0.6177471036 -1.0153742073
H 0.3875394083 1.8652964696 0.5786284027
H 2.7341068519 0.9063341097 0.1303050415
