19
0
C 1.3873659539 0.9887036323 1.2708899085
C 0.3077377838 -0.0161909693 1.5291055537
C 1.6154731453 -1.2001393877 -2.0480769881
C -0.8088886421 -0.0973636634 0.8392288248
C -2.1141735607 -0.7228644676 0.6146962981
C -1.6450727152 0.4470184132 -0.2323256314
O -2.3201399008 1.6586283148 -0.0580496571
H 1.5308969377 1.6430077869 2.1348309517
H 2.3438437275 0.4938916917 1.0836059659
H 1.1519929474 1.6085719728 0.4046119309
H 0.4722177704 -0.719847724 2.3415720797
H 2.527525424 -0.6050517666 -2.0320293803
H 0.9444573192 -0.8131788482 -2.8139382134
H 1.8628244855 -2.2361604564 -2.2750517232
H 1.128164467 -1.1465638599 -1.075160205
H -2.1683846535 -1.6995684465 0.1467990204
H -2.9037121771 -0.5050980214 1.3253910817
H -1.3748702851 0.225267073 -1.2632711384
H -1.6710520272 2.3543187264 0.0572653215
