19
0
C -2.7971590903 0.0519762706 -0.8781593
C -1.498638634 -0.569100345 -0.5916493043
C -0.4408666315 0.426810502 -0.3888686042
C 0.7941770927 -0.0175982502 0.3633532259
C 1.7851123745 -0.8730802567 -0.3575692205
C 2.1155926103 0.5625040864 -0.0470295793
C 0.5429205776 -0.283043272 1.8274457455
H -3.4497338196 -0.5590761359 -1.5020415258
H -2.803540505 1.106463528 -1.1929568468
H -3.244978014 0.0117276341 0.1316661819
H -0.2036703323 -1.0725223798 1.9479365206
H -0.1912623746 0.5916866105 -1.4577651105
H -0.797776989 1.4102428865 -0.0339766603
H 1.5727405796 -1.1409573716 -1.3849190856
H 2.2918242106 -1.6469254521 0.2046886593
H 2.133964433 1.2688455913 -0.8684940211
H 2.8482011906 0.7626200833 0.7248528742
H 0.1741590932 0.6150899079 2.3318542777
H 1.4555532278 -0.6008886374 2.3346427735
