15
0
C 2.1282491884 0.2928314388 -0.0703702166
C 0.7380096727 -0.2300083965 -0.3216132573
O -0.0336902809 0.6161330189 -1.1805476512
C -1.074849275 0.7106256991 -0.2110369461
C -1.9703747999 -0.5375544754 -0.2098319895
C -1.0861088252 -1.2912103648 0.7555527688
C -0.2657933966 -0.0466616706 0.8708744087
H 2.0917057518 1.3034750393 0.3379997585
H 2.6515265648 -0.3582727342 0.6323209982
H 2.6872105466 0.3138044969 -1.0072413742
H -1.5083367357 1.7094444517 -0.1583112469
H -2.8290728123 -0.3442343573 0.4559301432
H -2.346384057 -0.9946248477 -1.1261840973
H 0.7797285818 -1.2557111916 -0.712521459
H 0.1673298768 0.3127228935 1.8007841608
