14
0
O 0.2564105652 1.6536722019 1.6872683031
C 0.5847168209 0.5750092848 0.8503457736
C 0.4133696832 0.8828532392 -0.6202251617
C 0.0189276918 -0.3602065161 -1.3241636621
C -0.0268845931 -1.4914502859 -0.322335191
C -0.5661490638 -0.4098692586 0.6130455252
N -1.0157587021 0.4318859182 -0.6107462605
H 1.5357015899 0.1801047797 1.2126193875
H 0.7200565667 1.7798956524 -1.1435271621
H 0.0254681141 -0.4258989515 -2.4048702699
H 0.8966132526 -2.003667517 -0.0437402831
H -0.794916116 -2.2173863759 -0.5880432615
H -0.5488224732 2.0590713768 1.3518247524
H -1.273231336 -0.6236325481 1.41052351
