10
0
N 3.3799744212 -0.8003081982 0.4558256786
C 2.2770479677 -0.5279709617 0.3048611488
C 0.8864563619 -0.19927788 0.1172098445
N -0.0945805706 -1.2067529207 0.3078412255
C -1.1902642862 -0.592945021 0.0668455648
C -0.9498341852 0.8349777313 -0.2877954299
N 0.4881563543 0.9652769975 -0.2157543892
H -2.1526228622 -1.0889282469 0.1244715724
H -1.434310808 1.5312787239 0.4043495103
H -1.3078973929 1.0890317757 -1.2907827258
