21
0
C 2.6442499305 -1.2883470096 0.6190750825
C 1.9657270559 -1.3191600249 -0.5154250826
C -0.6583086019 0.9033195634 -0.4107359191
C 0.3403739953 2.0118859001 -0.2415500966
C -1.0953092624 0.5345154068 -1.609019877
C -1.0970667359 0.2570960477 0.8768456471
C -2.0922190978 -0.885098115 0.7584765812
H 3.409098453 -0.5425421057 0.804995897
H -0.1940003628 -0.0949551958 1.3894678242
H 2.4634901917 -2.0081618464 1.4094306213
H 2.1395858581 -0.5976076139 -1.3050394736
H 1.198072043 -2.0613067416 -0.7018582833
H 0.6383475225 2.4379442818 -1.1996338853
H 1.2360140753 1.6417592229 0.2658013804
H -0.0700760881 2.8138371065 0.3785708766
H -0.7431753079 1.0278408224 -2.5077202065
H -1.8138623232 -0.2642791806 -1.7436756476
H -1.5086910426 1.0404116065 1.5243554661
H -2.3415936856 -1.2780546935 1.7453593127
H -1.684819977 -1.707849233 0.1670154371
H -3.0215626403 -0.559889198 0.2864723456
