14
0
C 0.9046226456 1.4700391489 0.0947462508
C 1.1366395106 -1.295248465 0.2940169261
C -0.1207773177 -0.6548843743 -0.2496432276
O -1.1905942792 -0.6542198744 0.679693078
C -1.5150601922 0.7240283268 0.4351948043
C -0.303744299 0.9320395794 -0.4772874695
H 1.4521670911 -0.8380952588 1.2294576187
H 1.6492594936 1.5025052052 -0.7243598869
H 0.9216045247 -2.3504173879 0.475616978
H 1.9505517796 -1.239748813 -0.4313684065
H -0.4075336143 -1.1444959629 -1.1873168965
H -1.4945264933 1.3067904588 1.3575592448
H -2.4847657676 0.8218843557 -0.0614061279
H -0.5236050821 1.1513460614 -1.525457886
