9
0
N 1.925249696 0.0321780202 0.1890465688
C 0.6543995812 -0.4185876219 0.2654856975
N -0.2595160053 0.5820395776 -0.1668012209
C -1.4686335849 0.43871773 -0.0424326137
N -2.6570580989 0.451118328 0.1498055939
O 0.3359039885 -1.5206693926 0.6360656188
H 2.1190626924 0.962335636 -0.1281316344
H 2.6686685349 -0.5805716215 0.4653354634
H -3.3200918038 0.0229063441 -0.4755054734
