21
0
C 2.5971117803 -1.0723191438 -0.441698037
C 1.3664353092 -1.3294849147 -0.8566169964
C 0.132750401 -1.2400916136 -0.0125019557
C -0.9186400226 -0.2465388224 -0.5468615833
C -2.2217002167 -0.3777912747 0.2291718483
C -0.3585646437 1.1498587314 -0.5669024718
C -0.8760247189 2.2218738357 0.0145816083
H 1.8352986342 1.3369777598 2.5542692703
H 2.795674154 -0.7639235785 0.5795719085
H 3.4497947033 -1.1623932916 -1.1037216167
H 1.2120662444 -1.6306789593 -1.8917328645
H -0.334232395 -2.230088185 0.0340116521
H 0.4008084741 -0.9658217343 1.0124064755
H -1.1158261293 -0.5213635502 -1.5923354878
H -2.0735876434 -0.1464567901 1.2873342474
H -2.9894908355 0.2939497995 -0.1581931733
H -2.6053542429 -1.3975250588 0.1627597436
H 0.5765852951 1.2568349094 -1.1113477445
H -0.3837259991 3.1842931624 -0.0556003279
H 1.3308272181 1.4634219248 2.0190994928
H -1.8012233668 2.190475794 0.5782380122
