13
0
C -0.8106456096 -0.5011370186 1.2439805068
C -0.4346214738 -0.8860879777 -0.161146567
N -0.3445812647 0.210264577 -1.1491613517
C 0.906634809 -0.5811890469 -0.7095971848
C 1.5820943467 2.1898709955 0.1285250711
O 2.6423299085 2.3448115912 0.470002976
H -0.2291312475 0.3626356659 1.56803906
H -0.5679126716 -1.3285204781 1.9130559324
H -1.8775068912 -0.2838889806 1.3454385916
H -1.0364512537 -1.7058676471 -0.5600206364
H -0.8045716916 0.0651970215 -2.0352364279
H 1.1385031267 -1.2485202755 -1.5450920451
H -0.365523087 1.1665955734 -0.8155049248
