17
0
C -1.9373358672 -1.533811682 0.5140341697
C -0.7756477309 1.416771558 0.3478929799
O -0.600311669 -1.4542148947 0.9863179347
C 0.3206615476 -0.8276058825 0.2359257368
C 0.1962009638 -0.3563663246 -1.11840192
C 0.3946784169 0.8197013709 -0.1058235763
C 1.7957797536 1.396548637 -0.0396545082
H -2.3609588123 -0.5313432402 0.426228375
H -1.9771475705 -2.0524466126 -0.4485319059
H -2.4762416102 -2.1164918554 1.2578021075
H -0.5085462963 2.356653084 0.8649044006
H 1.3126498977 -1.0768608039 0.5941993376
H 1.0357168715 -0.5042981476 -1.7862225333
H -0.7760054044 -0.3636545068 -1.5882970719
H 1.9397297358 2.1334476662 -0.8335372512
H 1.9643859157 1.8919551058 0.917273523
H 2.570179858 0.6342845284 -0.1664877982
