12
0
C -0.3663954673 -2.2049242906 -0.6147275092
O 0.4437232502 -1.0371408109 -0.8369609728
C -0.125036929 0.070750315 -0.4621235382
N -1.1690722256 0.5519645822 0.0100152083
O 0.9333114738 1.4006121618 1.9038297979
C 0.781575992 2.0147310043 0.8838720319
C 0.0374906268 1.486468691 -0.2968855424
H -0.5818888896 -2.3057869511 0.4490626929
H -1.296890184 -2.1272911264 -1.1777248498
H 0.2227359949 -3.0463828578 -0.966525163
H 1.1998644208 3.0342513831 0.7628268063
H -0.0794180629 2.1627478996 -1.139583962
