12
0
O 2.1897729166 -0.9062561905 -0.1591932603
C 1.1689469908 -0.3142059023 -0.8474380712
C -0.731088431 0.1643144144 1.0696799178
C -1.4762810733 0.2661194282 -0.2666076247
C -0.013633378 0.2050851019 -0.2137571551
O 0.979157923 1.0908084087 -0.6821811903
H 2.1423698457 -0.6300457533 0.7606862669
H 1.1591540983 -0.6605822807 -1.875360399
H -0.7780045327 -0.7724602492 1.6119878569
H -0.7130257144 1.0551281973 1.6847991587
H -1.9253680125 1.2235942763 -0.4989740788
H -2.0250816326 -0.5985374508 -0.6173274209
