16
0
C 1.647004846 -0.4457639022 0.6314060403
C 0.9688379784 0.0530281398 -0.6420659181
C -0.2164398465 -0.9003076008 -1.073982074
C -1.3604051537 -0.2129317215 -0.3782270633
C -1.1080193014 1.1103974513 -0.2356575344
C 0.1881378785 1.3480460746 -0.5347941657
H 0.907126562 -0.573302041 1.4252998985
H 2.399605892 0.2638731264 0.9777180796
H 2.1386238483 -1.4056422397 0.4625304013
H 1.7272798588 0.1632869719 -1.4249073487
H -0.2958787038 -0.9155083184 -2.1651017937
H -0.1009832059 -1.9367235638 -0.7432200558
H -2.8632452865 0.7783572694 2.6036351858
H -2.1633186166 -0.7616576012 0.1046259778
H -2.5596900586 1.0993589848 2.0001152297
H 0.6039013088 2.2956729705 -0.863907859
