16
0
O -1.771529374 0.7264999144 1.7043447178
C -2.2712146323 0.3685528656 0.5629620539
C -1.211074861 0.3906517304 -0.5407914284
C 0.1979337948 -0.0685453924 -0.2077674235
C 1.33961709 0.8477606195 -0.403254547
N 0.8072910897 0.6327631556 0.9433864083
C 0.4256483223 -1.5553756939 -0.3158427027
H -0.7962179199 0.9091779968 1.6579646766
H 0.251716639 -1.8948660438 -1.3384360871
H -1.2139425502 1.4429376199 -0.8581210581
H -1.5935749531 -0.1738992806 -1.3914366142
H 1.176614356 1.8379756069 -0.811646032
H 2.3083739752 0.4155961006 -0.6258818596
H 1.4043761853 0.0084638702 1.4715883136
H 1.4491928964 -1.8209678681 -0.0418504067
H -0.2592720583 -2.100497201 0.3376889893
