13
0
C 0.8954692429 -1.6414787485 -0.5825895327
C 1.0030958183 -0.330467784 -0.7347513062
C 0.4730474453 0.6778044582 0.2248428387
C -0.8695351418 1.3312995309 0.0409827588
N -1.7428914819 0.1861056441 0.171150588
C -0.6788672426 0.4059980525 1.1403177702
H 0.4182071573 -2.0649001294 0.2956179594
H 1.286496165 -2.333234914 -1.3184938314
H 1.4968970751 0.0715383526 -1.6159242065
H 1.2315253485 1.3496313035 0.6275026589
H -1.1860371084 2.3604314639 0.0378428613
H -1.4846179918 -0.5449824538 -0.4873473057
H -0.8290942859 0.5482172241 2.1968457472
