11
0
C 1.560377529 -0.7109400798 0.0160022129
N 0.7266156895 0.4599449929 -0.0754425425
C -0.5241366907 0.3964028427 -0.0019056523
N -1.3416099094 1.496348696 0.0002867176
C -1.7910008538 -1.8312039583 0.2375919045
N -1.2521520824 -0.8011465676 0.1364365304
H 2.2119060787 -0.7482845815 -0.8587657254
H 2.2040776011 -0.622344709 0.893662833
H 1.0090569656 -1.6542499904 0.0818294173
H -0.8893703077 2.3494607616 -0.2803835733
H -2.2894330201 1.3692825936 -0.3071231224
