14
0
C -1.2991426225 -0.8612424428 -0.4407679267
C -1.4072759814 0.5445828208 0.1012546655
C -0.1222548098 1.3245573487 0.1844690767
C 1.0804564606 0.7684476534 0.1305884214
C 1.3014653066 -0.7081091428 0.0385363093
O 0.066434783 -1.3708157253 0.3771406443
H 0.0898679288 -2.3128009251 0.1930788703
H -0.828694566 -0.7699458145 -1.4375050999
H -2.0968665904 1.0642375106 -0.5743718246
H -1.8958700984 0.5652889763 1.0835994417
H -0.1848768215 2.4023328944 0.3099613416
H 1.9810909576 1.3702198357 0.1776044751
H 2.0558393236 -1.0328565264 0.7601666738
H 1.6130347299 -1.016152463 -0.9653690686
