15
0
C 2.1183470899 -1.5476769043 0.1193502687
C 0.0886393981 1.2897599 0.9163916096
C -0.257324052 1.8410604065 -0.4245129142
C -1.2528456516 1.0420966934 0.329611999
C -1.6259161725 -0.3772015833 -0.0367315067
H 1.9866424444 -1.3099413979 -0.9362631533
H 1.4861344764 -2.3950498989 0.3823140291
H 3.1610889821 -1.8038001364 0.3012253196
H 1.8457915207 -0.6862665616 0.7301914787
H -0.3614388281 2.9180462354 -0.5035877787
H 0.3027036686 1.3993196222 -1.2451984655
H -2.0371832451 1.6071357489 0.8294553536
H -2.4436307591 -0.3831787789 -0.7595112148
H -0.7789434908 -0.898575383 -0.4849859751
H -1.9341013809 -0.937098962 0.8475309496
