16
0
C 2.6279833329 0.0807624743 0.6297676523
C 1.2929720465 -0.0032696588 -0.0394801565
C -1.5648379829 -0.5969744617 -1.1017543266
C -2.1664539056 -0.3693226327 0.2534769899
C -1.1311705249 0.5809585814 -0.2865208645
C 0.2096854381 0.6576243523 0.3449563996
H 2.6043396591 0.7598702235 1.4832810927
H 3.3933723857 0.432578296 -0.0670430622
H 2.9523407276 -0.9007756384 0.985897361
H 1.2285986712 -0.655782471 -0.9073954003
H -2.1796782833 -0.4119549335 -1.9725536376
H -0.8778312578 -1.4256418914 -1.2104789172
H -1.8581569263 -1.0322612737 1.0517843859
H -3.193049043 -0.03208768 0.3143114312
H -1.5234074022 1.5411330872 -0.6074111689
H 0.2816350651 1.3222176266 1.2049522213
