13
0
C 1.818832777 0.2068082595 0.5014642685
C 0.489851607 -0.3737224553 0.0494218255
C -2.3618284451 -0.9178166931 -0.8210248856
N -1.8935926519 0.2571738033 -0.4712455954
C -0.5856228993 0.6746539804 -0.0406765208
O -0.4335331599 1.8335554705 0.2210622834
H 2.170701617 0.9672941836 -0.1952150629
H 1.7293887384 0.6759611533 1.4808645683
H 2.5705772444 -0.5801903899 0.5632213396
H 0.5814203622 -0.855573994 -0.9280123554
H 0.1481610343 -1.1553645822 0.7339107338
H -1.5280180452 -1.6368687696 -0.7317473325
H -2.5224041792 1.0547110333 -0.4891832665
