14
0
C 1.4816660333 -0.0919736569 -0.6769086818
C 0.5662951888 -1.2437250369 -0.3337517925
C -1.7336151653 0.001893446 0.1274205403
C -0.435976146 -0.5911353552 0.6312289976
N 0.0240859026 0.8337929304 0.8410896893
C 1.1316017344 1.0098879721 -0.0275983558
C -1.2560132734 1.22966577 0.3193493053
H 2.3245481631 -0.1740429059 -1.3493059553
H 1.1081150032 -2.0590332542 0.1531517915
H 0.0827591268 -1.6663554319 -1.218343285
H -2.6943492136 -0.4117846811 -0.1386846841
H -0.5210986814 -1.1201444038 1.5816989044
H 1.5960212479 1.985171849 -0.0886348697
H -1.6084879203 2.2468487587 0.2074413959
