19
0
C -2.2640189503 0.0125625097 0.683787097
C -0.7779020992 0.2304904693 0.419570623
C -0.40683273 -0.3731102243 -0.9301060203
O 0.972422278 -0.2508199634 -1.2347447929
C 1.7931785821 -1.1118181012 -0.5936891649
C 3.0999573485 -0.9220018368 -0.4995448414
C -0.4019982463 1.7057496543 0.4867788429
H -2.5277982251 -1.0474879898 0.6606569873
H -2.8725760994 0.5260788807 -0.0663191973
H -2.5481211098 0.4052354618 1.6615287504
H -0.2080248259 -0.3063098036 1.1877799654
H -0.6990496164 -1.430748478 -0.968459183
H -0.9312354694 0.1487223019 -1.7344305827
H 1.3078854496 -1.9964243142 -0.1822218151
H 3.7161087181 -1.6680584244 -0.0198091184
H 0.6603468975 1.8517942507 0.2894006458
H 3.5699185674 -0.0375452126 -0.9091080783
H -0.9645337734 2.2816441031 -0.2540399127
H -0.626533696 2.1195997169 1.471782795
