10
0
O -1.9514064315 -0.6869110176 0.3863444702
C -1.0273051451 0.2280406942 0.2414242552
C -0.5606195801 1.3649062497 -0.1205685917
N 0.278567184 0.399873619 0.7763431039
C 1.3075484145 -0.3012754281 0.114576017
N 1.104723789 -1.3992218681 -0.4702744835
H -2.7694747906 -0.3850651578 -0.0216434658
H -0.5779975106 2.422212118 -0.2889135446
H 2.2798097405 0.1886584221 0.2189679686
H 1.97077433 -1.7801826315 -0.8394847294
