11
0
O 1.9879596897 0.6824767892 0.1464790436
C 0.5766614774 0.1728292669 0.0707648499
C 0.1315897006 -1.1215935982 0.1297945776
C -1.2681833638 -0.9148195035 0.0294840569
C -1.4770088375 0.4550074285 -0.0632106773
N -0.2985088016 1.1413194812 -0.040497754
H 2.3975189085 0.6194828339 -0.7294465623
H 0.6820336369 -2.041280151 0.2355117708
H -2.0241138481 -1.6862749348 0.033328857
H -2.416115121 0.9825131784 -0.1440218544
H 1.8035335589 1.6276302095 0.3257206922
