13
0
O 3.1222535282 -0.4145271854 -0.2211061055
C 2.3452952377 -0.7039464246 -1.0891891342
N 0.9654427133 -0.8257075573 -0.9171926304
C 0.3104637083 0.1510147109 -0.4531797546
C -1.4304979121 0.3864664815 1.3176203914
C -1.1477903315 0.0725705892 -0.151801753
H 2.6684979077 -0.9706273005 -2.1096606445
H -0.9427907396 -0.3377059128 1.9718348007
H 0.8095060854 1.1058302407 -0.2411918826
H -2.5021140263 0.3541048307 1.5153034641
H -1.0704667576 1.3807100789 1.5902436374
H -1.6679622027 0.7989362186 -0.785335099
H -1.5064492106 -0.92117977 -0.4215692901
