21
0
C -2.0649353571 1.0869773098 -0.5230940706
C -1.7429281524 1.7179508284 0.8242069723
C 0.5910691501 -1.8948269043 -1.1127263038
C 0.4100658176 -2.1455467084 0.3636945066
C 1.4558027077 -1.2026558585 -0.1036941263
O 1.2389531734 0.1432255666 0.1576576402
C 1.8240844566 0.9884813599 -0.802606042
H -2.9851698636 1.4928249278 -0.9486237595
H -2.1932152649 0.0059244169 -0.4331071187
H -1.2619703343 1.2621732659 -1.2421660498
H -1.6238428668 2.8001185399 0.7361479694
H -2.5379063997 1.533637573 1.5497719818
H 1.026030888 -2.6726120613 -1.7262529169
H -0.1647910676 -1.2923987294 -1.6001354088
H 0.7203274322 -3.0969807357 0.77412604
H -0.4573735846 -1.7014674175 0.8338550197
H 2.498231036 -1.508960837 -0.0315132825
H -0.8148376513 1.3112150623 1.2283838658
H 2.9152752337 0.8763766358 -0.8226835971
H 1.5778819717 2.0127008427 -0.524927609
H 1.4336966753 0.7824819234 -1.8063147109
