14
0
C -1.3760450109 -1.493348868 -0.382455217
C -0.777045477 -0.1400128859 -0.1724537093
C 0.1067320363 2.4092273467 0.2060442105
N -0.6308270878 3.2929603031 0.2353708456
C 0.5075202947 0.1239749729 -0.0149293479
O 0.9656123839 1.4566873966 0.1803765956
C 1.6920040947 -0.7724032453 0.0030552906
H -0.6330170837 -2.2888968224 -0.3993261954
H -2.0933712305 -1.7185185005 0.4097449974
H -1.92326382 -1.5233622853 -1.3271923321
H -1.4721477558 0.6947008554 -0.148042631
H 2.2050715455 -0.7028582531 0.9640719465
H 2.3996625263 -0.4795385676 -0.7745985304
H 1.4015295842 -1.8062584465 -0.1625309232
