11
0
N -1.6171783341 -0.4098405923 -0.5210711122
C -0.3971518402 -0.2235465743 0.2349762978
C 0.7781250058 -1.0560532896 -0.2287467775
N 1.7284779922 -0.1703351047 -0.2488287406
N 1.4155439511 1.1941988885 0.0417651035
C 0.16808365 1.1721634469 0.2761844278
H -2.4397460972 -0.3126637637 0.0558184347
H -1.6190976112 -1.3376491815 -0.9218998316
H -0.4816199018 -0.5361392499 1.2957815624
H 2.6930157736 -0.3464440411 -0.4787659216
H -0.3604735882 2.0839584618 0.5214125573
