12
0
O -1.7307697176 0.7341273829 0.4649531936
C -0.6539800763 -0.6794996458 -0.7536164143
C 0.4324825118 0.1645827354 -1.2916837862
C 0.7231308642 -0.7109731095 -0.1098229997
C 1.0220831362 -0.028560208 1.1663438672
O 1.5715265039 -0.5483606452 2.0995792653
H -2.4111161436 0.7027349824 -0.2139333776
H -2.0108616307 0.0862059363 1.1190383708
H 0.7812362354 -0.0853926731 -2.2874867432
H 0.4184161772 1.2278184233 -1.0741482453
H 1.1970481636 -1.6817702139 -0.2090350424
H 0.7023869757 1.032380035 1.2059029117
