17
0
C 1.9142142807 0.5067108742 -0.2236449236
C 0.4225554848 0.240994352 -0.0422998306
C 0.0603752202 -1.2284600988 -0.2007439246
C -1.4272445396 -1.5160651247 -0.0517926919
C -0.3466360738 1.2279968988 -0.8769003073
C -0.7671283178 1.7466221318 0.4476460987
O -0.0370109019 0.7982316077 1.2269838916
H 2.4504483204 0.0055049642 0.5837164863
H 2.2546881747 0.1249769162 -1.1855510384
H 2.1387535879 1.5731329673 -0.1713452253
H 0.4148975663 -1.5517466068 -1.1823046381
H 0.6298277647 -1.7838446051 0.5508885907
H -1.7949777589 -1.1643751649 0.9134033008
H -1.6212195945 -2.5874090453 -0.1143047798
H -2.0045461659 -1.0285709661 -0.8412227941
H -1.8592026603 1.6320567019 0.5439815485
H -0.5243843871 2.7948761976 0.6568022372
