17
0
C -1.6064182767 0.0589417016 -0.506361617
C -1.7250038967 1.1548509293 0.5387230702
C -0.406270416 0.6702410966 0.0911998003
C 1.1165978609 -1.9392014784 -0.5881635974
C 1.3495031813 -1.1940375136 0.484688803
C 0.8698884433 1.2357883729 -0.3621896318
C 0.8318662185 0.1721461844 0.7382070753
H -1.8578972175 0.3087976579 -1.5301139318
H -1.8653335041 -0.9498048621 -0.2073872162
H -2.0535645554 2.1325977059 0.2073553467
H -2.0703700596 0.8693077058 1.524847558
H 0.4893331166 -1.5978438117 -1.4042942183
H 1.5549393473 -2.924189358 -0.6858852307
H 1.9848805859 -1.5996653719 1.2671496836
H 1.2668665408 0.9120781317 -1.3175066026
H 1.1265655957 2.2476881424 -0.0723132116
H 1.0226860355 0.5468147673 1.7375289203
