13
0
N -2.1269281961 -0.2627738836 0.4239240628
C -0.9777656999 0.109456919 -0.3713114403
C -0.2847473842 1.4235957482 -0.0835924195
C 1.0385706368 1.0810410693 0.0608151938
C 1.207440126 -0.325645703 -0.0386734345
O 2.3134112316 -1.0441894921 0.0614136708
N 0.0658434551 -0.9337554788 -0.2539128073
H -2.9227143277 0.2769090574 0.1102555857
H -1.9652976082 0.013310761 1.3858346127
H -1.2794871971 0.146239697 -1.4248853218
H 1.8713952751 1.745490195 0.2666125356
H 3.0596130616 -0.4563770023 0.2115672249
H -0.060413373 -1.9268798871 -0.3455234629
