12
0
C -1.2726793556 0.5467822942 0.3590160538
C -0.4590221867 -0.6883471044 0.1203055768
O 0.0104238201 -0.7753179874 -1.2937943328
C 0.9936345639 -0.7250003541 0.110720361
C 1.7515859731 0.4962611778 0.0939794412
O 2.0175011162 1.0996255813 1.1158081464
H -1.3101550166 0.7306957774 1.4342562569
H -0.8126897272 1.4153155297 -0.1105947064
H -2.2923279782 0.4257168342 -0.0094136049
H -0.9738485984 -1.6060899507 0.4064014392
H 0.0699085645 -1.7016407147 -1.5511380717
H 2.1742308249 0.7976359169 -0.8872575594
