9
0
O -1.6006054176 2.8800220501 0.6675152719
C -1.8129806091 1.7808058159 0.5821279301
C -0.4933262076 -1.2518180425 -0.4129964856
N 0.5574710596 -0.7489959917 -0.890961834
C 1.4955549991 -0.1428537082 -0.0557965164
O 1.2881845856 0.8431503905 0.5959812073
H -0.6992570651 -1.2900373415 0.6597737168
H -1.2379064149 -1.6681270902 -1.0881619873
H 2.4867090698 -0.6236930825 -0.1126933027
