14
0
N 1.6093247426 1.3124095086 0.8224107245
C 1.5507681233 0.5830116911 1.7907021068
O 1.4393955212 -0.18683819 2.6452735973
C -1.3031823057 -1.1828076293 0.814433879
C -0.8718276247 -1.110969498 -0.4355034082
C -1.0075959111 0.100098235 -1.3085697888
O 0.2390345968 0.5392814128 -1.8072002119
H 2.0487807537 2.2166571612 0.8411997469
H 0.7922380833 0.754768406 -1.0473680734
H -1.8003682011 -0.3411627877 1.287235498
H -1.1820283592 -2.0782292046 1.4116401321
H -0.3660057914 -1.9602007955 -0.8884341997
H -1.5237851009 0.8979222479 -0.7579856841
H -1.6145505268 -0.1385915577 -2.1857783185
