14
0
O 2.1034015024 -0.9697424751 0.6296905291
C 2.7281893281 -1.1058304703 -0.503353831
C -0.3287686869 0.8338506521 -0.0582960182
O 0.0444249344 1.5036896222 1.1016264609
C -0.9221687806 -0.5585100777 0.0502164385
C -1.7798097335 0.6450583862 -0.2572208451
H 1.1293284096 -0.9503359253 0.5506896206
H 1.9378477099 -1.1804303254 -1.299153926
H 0.2755049522 1.0527499369 -0.934991089
H 0.9687777235 1.3242691945 1.291605203
H -1.0303985065 -0.9734613236 1.0455899531
H -0.7483445387 -1.2767472287 -0.7431131979
H -2.1837136943 0.7468069262 -1.2548911867
H -2.4191876197 0.9984091083 0.5401888885
