10
0
O 0.8206069695 1.8327126953 -1.0959140411
C 0.9567361738 0.6892404231 -0.7813460931
C 0.4391702289 -2.6001794258 0.0773941005
N 0.1209612292 -1.4938832604 -0.1035404287
C -0.2256374205 -0.1443046228 -0.2779859882
C -0.7634516448 0.4985355829 1.0124102605
O -0.9144988533 -0.0942642151 2.0319992168
H 1.927753674 0.1613105357 -0.8104689598
H -1.0201121595 -0.0490327805 -1.0262014243
H -0.9902901975 1.5731030677 0.8907013576
