13
0
C -2.3325714105 0.3888788584 0.1430835374
O -1.3566417172 -0.6477621648 0.1020628816
C -0.0784269204 -0.2914298293 0.0010409015
N 0.2932258567 1.0843840704 0.0013660148
N 1.5296145722 1.195380618 -0.0958897866
C 2.1375724797 -0.1303507014 -0.175652811
C 1.0009949565 -1.0724784565 -0.1040236654
H -3.2911927619 -0.1195988903 0.2157661332
H -2.1859094985 1.035904794 1.0086374309
H -2.3016708065 0.9940929312 -0.7642093814
H 2.7119200988 -0.1736644315 -1.1070126949
H 2.8585274384 -0.2150684081 0.6440514116
H 1.0400147127 -2.1483543903 -0.1316199718
