10
0
C -1.7540542937 -0.8012897654 0.0972010431
C -0.4120578804 -0.1542784604 0.0867792955
O 0.2521106389 0.0068400135 -0.9087802367
C 3.6084269246 1.7619078581 0.1759882217
N 2.6614413837 1.253630787 -0.2644618609
H -2.0533691181 -1.0916022019 -0.9074797383
H -2.4835729238 -0.1101832919 0.5271151534
H -1.7251519456 -1.6766385065 0.7513765323
H -0.0255141299 0.1901315485 1.0654731716
H 1.8191103444 0.8024520189 -0.6230925814
