19
0
C -2.1170660827 -0.1917088197 0.876824966
C -1.0622720344 0.7193990209 0.2584614729
C -0.1464790617 0.0009354064 -0.739602657
C 0.752516383 1.013883725 -1.5011293915
C 0.8854917627 -0.9555479469 -0.2828516966
C 1.4209654066 -0.747992128 1.0432685728
O 2.6126783597 -1.4286755178 1.3341448545
H -2.742732172 -0.6430278603 0.1035592168
H -2.7702036931 0.3661316618 1.5495434047
H -1.6724329452 -1.0062467128 1.4525829322
H -0.4702596878 1.1993739458 1.0433753252
H -1.5661321436 1.5336012633 -0.2720941918
H -0.7676044274 -0.4850582074 -1.4996567916
H 0.1072429826 1.6793167089 -2.0749710789
H 1.3408885009 1.6165694779 -0.8070617729
H 1.4344890332 0.516270269 -2.1908069006
H 1.5174522591 0.284592025 1.4034914805
H 0.5635647842 -1.1814377035 1.615977116
H 2.7290577762 -2.0609586078 0.6170951394
