15
0
C -1.7638510179 -0.36122308 0.6231127107
C -0.8351920837 0.7681686584 0.3280853306
O -1.5259302838 1.9406717708 0.291958172
C 0.4822386877 0.7082928212 0.1277272778
C 1.3370289374 -0.5252382449 0.1239216
C 1.68649189 -0.9189701302 -1.2928014526
O 2.8014148442 -0.9969638994 -1.727314989
H -2.2833519831 -0.172285192 1.5642540761
H -2.520757757 -0.4290935778 -0.160489618
H -1.2478470802 -1.3152354435 0.6897870283
H -0.9225205933 2.663175155 0.099792189
H 1.0051913031 1.6385251906 -0.0840273746
H 0.8081214741 -1.1193706262 -1.9439548849
H 2.2656911844 -0.3706674985 0.6756529442
H 0.8127134784 -1.3695239037 0.5793729903
