17
0
O 2.6307514007 0.5811321072 0.3573256717
C 2.0997527858 -0.3241266901 -0.2211772708
C -0.9817711979 -1.345270274 0.9293264771
C -0.8653156772 -0.0763956702 1.2823749604
C -1.1321914146 0.8024549299 0.0989692029
O -1.251150196 -0.0953545305 -0.9974299464
C -1.3351478076 -1.4310932184 -0.5251257149
H 1.9285643012 2.8145321712 -0.7099875959
H 1.3652391178 -0.1546401628 -1.0296413735
H 2.3201943545 -1.3796598064 0.0282912404
H -0.8702951101 -2.2085409227 1.5709049365
H -0.6318126001 0.3030505901 2.2673288552
H 1.6177785727 3.4034388719 -1.0481015067
H -0.3221985631 1.5108021749 -0.1021469879
H -2.05854292 1.3798004928 0.222253826
H -0.6457363292 -2.05801682 -1.1023929096
H -2.3473767167 -1.8314592428 -0.6757388645
