13
0
C 0.2542011805 -1.2592864483 -0.1173093931
C 1.1688859321 -0.0708866178 -0.288731776
C 0.8149165503 1.1701139753 -0.120695742
C 0.4568938526 2.4073841003 0.0516886266
N -2.214537043 -1.153991354 0.1027170407
C -1.0541869671 -0.924070688 0.5413762293
H 0.7683770017 -2.0042821571 0.5008435854
H 0.0732608819 -1.7322245901 -1.0879496165
H 2.1941223621 -0.2786943498 -0.5817306425
H 0.0543109365 2.9908011366 -0.7681262703
H 0.5467177518 2.8877598343 1.0190879174
H -2.1740388156 -1.6051625676 -0.8122888354
H -0.9758186238 -0.4318672738 1.5145688764
