16
0
N 2.1416432123 3.280267619 0.0438884717
C 1.4972364152 2.3654051027 -0.2318200713
C 0.8230269444 -1.7175249806 -0.0585479884
C -0.6019745339 -1.3483667144 0.3371867554
C -1.1451765106 -0.0687915126 -0.2973842548
C -0.4783977703 1.2159021176 0.1339520419
O 0.803386468 1.3378194174 -0.5566440149
H 1.5493546422 -0.9852528419 0.2947292411
H 0.9255401151 -1.7814926455 -1.1443381577
H 1.098481651 -2.6867045545 0.3602014812
H -0.6710475507 -1.2594620647 1.4267846485
H -1.2731747938 -2.1661876029 0.061256576
H -1.1013635335 -0.1311601527 -1.3891125189
H -2.2031549971 0.0341541414 -0.0386193012
H -0.2822465039 1.2380570043 1.2089617777
H -1.0743582543 2.0884176672 -0.1392176862
