12
0
O 0.4778949293 2.3826543113 1.1132812688
C -0.1292241963 1.6476978244 0.4528395245
C -0.7984560488 0.8053217773 -0.2914552842
C -1.4889786908 -0.417221047 0.2560242418
O 1.5031225485 -1.9228060507 -0.4926035996
C 1.9321209672 -0.8142212278 -0.3466371415
H -0.8529976972 1.0523142827 -1.344449984
H -2.5607735246 -0.3789954841 0.0546563717
H -1.3534049079 -0.4972749333 1.3344506904
H -1.0838749179 -1.3243960796 -0.1958603855
H 2.204445644 -0.1727344435 -1.2056144342
H 2.0904908947 -0.3731049296 0.6555157318
