15
0
C -1.5883438897 1.9273433627 0.6988145047
C -0.9560035075 0.6117831576 0.8509939726
C -0.7486730803 -0.0393410937 -0.4299825359
O -0.4358475889 -1.4105221803 -0.4300609694
C 0.7113759879 -1.7444514451 0.3172427002
C 1.9500771249 -1.2319242885 -0.2855717753
C 2.9520655405 -0.798266014 -0.7776723363
H -2.6280589913 1.6850030078 0.978656113
H -1.2635606404 2.6463361612 1.4514175212
H -1.6097431245 2.3806987857 -0.30271241
H 0.6261719578 -1.3654058884 1.3408835636
H 0.1000088453 0.5617198957 -0.8342832438
H -1.5676344188 0.0904131382 -1.1501816113
H 0.7454143888 -2.8335763521 0.352325132
H 3.8466453962 -0.4205322468 -1.2137596252
