13
0
C -1.059459678 0.1830694034 1.0781072456
C -0.5264483018 -1.005865634 0.2599802063
O -1.4919670263 -0.6840920422 -0.7992104341
C -0.931981985 0.6124614115 -0.3938275575
C 2.7230278044 0.5895831297 -0.1811602466
O 1.5177128467 0.5076362276 0.2755319878
C 0.4421326142 -0.0678847933 -0.4755676648
H -2.082828927 0.0682819947 1.428439304
H -0.3954547989 0.6438334473 1.8060733281
H -0.3964961598 -2.0499557042 0.5331637989
H -1.289481669 1.5047322742 -0.9013152206
H 2.7106036352 0.1395351371 -1.2126683744
H 0.7868926453 -0.3817668518 -1.4617553726
