14
0
C 1.8371479785 -0.0508153712 -0.1500263094
C 0.3619847361 0.0585756348 -0.0036715337
C -0.8695860285 0.141854129 -0.9399272957
C -0.6730249109 1.4547859294 -0.2676763372
C -1.5287425233 -0.8524352772 0.0050524606
N -0.5131911949 -0.5298826341 1.0469299731
C -0.430567233 0.9286521772 1.0278966901
H 2.2154805681 0.7786923133 -0.7454815156
H 2.0980679762 -0.9874738073 -0.6442259216
H 2.3155754078 -0.0330160275 0.8290314073
H -0.8726402943 0.0774453348 -2.020168062
H -2.5633035869 -0.6716319074 0.3056956184
H -1.3889464365 -1.89099534 -0.2932383099
H 0.0079815416 1.426054846 1.8808671357
