15
0
C -1.4998084098 -0.0870147931 0.0991248381
C -1.0198640575 -1.3589579272 0.7024196662
O -0.0716283941 -1.830327939 -0.0531131683
C 0.3235271108 -1.0057213846 -1.0110262228
C 1.8569605122 0.9426643957 0.5628144148
C 0.6551143721 1.248071887 0.1032714096
C -0.2532479444 0.3475878869 -0.7142820794
H -2.3217226808 -0.3140771455 -0.6023253814
H -1.8494678312 0.6596563444 0.8110272589
H -1.4982864295 -2.0531927071 1.3725533011
H 1.2680420164 -1.2577025688 -1.4652814949
H 2.4282970391 1.647262102 1.1539258726
H 2.3103390984 -0.023825417 0.3708789148
H 0.2332820912 2.226335974 0.3288258761
H -0.5581814931 0.8886572922 -1.6109912056
