13
0
N 2.4176735161 -0.7669816894 1.5809031638
C 1.6119672425 -0.1449279502 1.0520091165
C 0.5773160138 0.632721069 0.3555896769
C 0.4067028608 0.4463071112 -1.1592944357
C -1.1306813212 0.2789751714 -0.9992118615
C -1.235981015 -0.9142013235 -0.1262772226
N -0.7893897564 0.2229568084 0.667227022
H 0.7031246425 1.6848220269 0.6056066412
H 0.9180617566 -0.4307315303 -1.5641357413
H 0.7069822114 1.3266577651 -1.7216417041
H -1.3385517231 0.6313828905 1.4042993415
H -0.5311495719 -1.7492442428 -0.1400581487
H -2.2410068561 -1.2145931061 0.1521541524
