15
0
C -0.44420316 1.2650818672 -1.0858411386
C 0.9683434204 1.1167013492 -0.6011901623
C 2.0560078061 1.1858194274 -1.3615954106
C 1.1246256703 0.8687514301 0.8099921894
N 1.2095807034 0.6604520226 1.9370153652
C -1.6378814071 -2.5914271927 1.3667735857
N -1.2499552776 -1.4550438614 0.9850682634
H -0.9213931045 2.1244926099 -0.6102624264
H -0.4597537508 1.4084025419 -2.1655191213
H -1.0256507461 0.3783741577 -0.823899074
H 1.9703974347 1.3656185807 -2.4262596632
H 3.0480524682 1.0653163034 -0.9468630217
H -1.3697127885 -3.0415130044 2.32742861
H -2.2813394022 -3.1822813744 0.7137269377
H -0.6522848664 -1.0114218569 1.6825170665
