10
0
C -1.6988888714 -0.2835683 0.3511801651
C 1.7649216129 -0.1417385716 0.1265544532
O 1.6541254571 -0.6526674586 -1.0602364712
C 1.5990559649 1.2956177847 0.0428481176
N 1.4927988447 2.4351372315 0.1737357722
H -1.6403304739 -0.8605679535 -0.5711248409
H -1.5101725436 0.7672176771 0.1354928034
H -2.6934748745 -0.3902127248 0.7811211773
H -0.9589441797 -0.6479916483 1.063957802
H 1.7627480633 -1.6094990367 -0.9887139788
