13
0
C -1.6181432131 -0.002699137 0.3497959578
C -0.2994243378 0.3445464864 -0.2721511055
C -0.0013993728 0.1084532536 -1.5512263318
N 0.574263496 1.0114549 0.6065719436
C 1.6658852094 0.474510226 0.9401056764
O 2.1523823056 -0.7133792608 0.5540825427
H -1.4749943072 -0.6830796572 1.1927623544
H -2.2879287677 -0.4684100019 -0.3715542877
H -2.0847612083 0.9018848689 0.7436957017
H 1.5466951676 -1.0901912338 -0.1024730298
H 0.9417394331 0.4283486122 -1.9783119429
H -0.7271612811 -0.3437039188 -2.2140480421
H 2.3379878763 0.9748428623 1.6311255634
