15
0
C 2.3589167744 -1.4560438277 -1.2594174729
C 1.5532620782 -0.6147236998 -0.3861294361
C 0.917470922 0.0812260826 0.358115327
C 0.0168471457 0.9546719532 1.1209038382
C -0.8322043478 1.2444946865 -0.0677407487
C -1.9605120422 0.2630830314 -0.165870344
O -2.9265094831 1.099958028 0.4737285007
H 3.4215596195 -1.2760576219 -1.091105468
H 2.1543988713 -2.5125429152 -1.0818137976
H 2.1393246735 -1.2346317517 -2.3049506968
H 0.5534511815 1.820585565 1.5073278875
H -0.4629092151 0.4000503483 1.9364083569
H -3.0041921511 1.9009832398 -0.0564926583
H -2.2480420653 0.0052512993 -1.1877391038
H -1.8898509615 -0.6468464178 0.4399938156
