15
0
C 2.2601074085 0.3234206598 -0.5920098083
C 0.8666760747 0.7200558817 -1.0533430644
N -0.1464042849 0.0001860853 -0.3091501698
C -2.0176326405 -1.2750224721 1.1136816568
C -0.9805786527 0.6738716242 0.3430449758
O -1.9596061352 0.145126765 1.0813561128
H 3.0236555808 0.8305032948 -1.1850555969
H 2.4014440167 -0.753740506 -0.6918837761
H 2.4095586574 0.5867391435 0.4569808618
H 0.7499611128 0.4662757611 -2.1108877276
H 0.7396033426 1.8099334178 -0.9687238038
H -2.8612584635 -1.5239116023 1.753144674
H -1.0932898563 -1.6874794517 1.5212153058
H -2.1637170548 -1.6780170788 0.1103365907
H -1.0156681053 1.7665374779 0.3896987691
