12
0
O -0.7441515463 2.2251005467 -1.1845553175
C -0.6963407907 1.4811594525 -0.2439289323
C -1.1121522475 0.0371390908 -0.267877365
C -0.0065512625 -0.9178847076 0.1647979166
C 1.4055680601 -0.756389615 -0.3094368959
C 1.2056940136 -0.4744237789 0.9301755683
H -1.9580026077 -0.0589674527 0.4243394208
H -1.4709710402 -0.2089186442 -1.2693242244
H -0.378015774 -1.9289792124 0.3360685844
H 2.0766774381 -0.8363858987 -1.1463558769
H -0.333251028 1.8502446101 0.7394055848
H 1.5942377851 -0.1471033903 1.8788015373
