12
0
O -2.0976430317 0.7848179234 0.4589211638
C -2.0472603026 -0.482907996 -0.1175370995
C 0.1630711113 -0.1112029856 -0.9159079883
N 1.1798233294 0.5564643014 -1.1280247712
N 2.2826418924 0.3439967083 -0.283819825
C 2.288403997 -0.4550003204 0.7283679408
N -0.8548202 -0.7494566131 -0.8986031133
H -2.2711586418 1.438477961 -0.2219650281
H -2.9006008172 -0.6697829198 -0.7750185411
H -2.0662367604 -1.2049644922 0.6983036408
H 3.0448043791 0.9279228076 -0.6075934283
H 3.2977430445 -0.3804233746 1.1630400493
