13
0
C -1.0434852397 0.7050563175 0.0023635248
C -1.1751714694 -0.7858005029 0.1912495597
C 0.3898023262 0.8221456825 -0.4928732018
N 0.9412097194 -0.5260671129 -0.7152001723
C 1.4914128763 0.3214683504 0.3523374177
C -0.0707493527 -1.3992893465 -0.2112565433
H -1.2293800896 1.2671510769 0.9218251491
H -1.7445601024 1.0790227705 -0.749278241
H -2.0525147027 -1.2718430316 0.5943520362
H 0.6168243479 1.5503232681 -1.2616302235
H 1.2620044738 0.0330558462 1.3731312607
H 2.5004335634 0.6766020281 0.181296451
H 0.1360236494 -2.4611843464 -0.2042250175
