13
0
O 1.7446471648 -1.4585654044 -1.7383264182
C 1.4868541036 -0.3169089694 -1.4324838838
C 0.4846241627 0.0590530703 -0.4610891711
C -1.2325405571 0.1082402008 1.1539322297
C -0.395186805 -0.8796334348 0.3220306952
C 0.1926166508 1.3142876328 -0.1025025767
O -0.7652147811 1.4426778255 0.8162696649
H 2.0280095788 0.5303656597 -1.9022076795
H -2.296142693 0.0736771375 0.9187294226
H -1.1032025064 -0.0137484607 2.2287739807
H -1.0104524244 -1.4978484946 -0.3332280147
H 0.1940741254 -1.5547950842 0.9444326664
H 0.6254769812 2.2418363216 -0.4546729153
