11
0
N 1.5798400862 -0.0591230991 0.2261108492
C 1.2160279832 -0.3640987574 -1.0367143179
C 0.4674436837 0.7374220691 -0.3897889556
C -0.9462789513 0.5139476318 -0.0094278865
C -1.3770050287 -0.3544849628 0.8919386024
O 1.3821652592 -1.1219950137 -1.9362055024
H 1.4610592979 -0.6758550318 1.0186501689
H 0.7451371563 1.7712963353 -0.5701507047
H -1.6586976197 1.1335074987 -0.5451870624
H -0.7051142221 -0.9957034458 1.4523506719
H -2.4320386448 -0.4611662243 1.1061851369
