13
0
N 2.1767273221 1.1868224987 -0.1080490935
C 1.1730260504 0.3275228622 -0.3042881207
C -1.0382030942 -1.405937121 0.0929706543
O -0.3512665271 -2.475932839 -0.2633823754
C -1.8460354393 -0.7745131142 0.8742469231
C -1.2052030203 0.0005579154 -0.2563993228
N -0.0343269945 0.8318806142 -0.0670104441
H 3.1167932152 0.8799607465 -0.2651716189
H 2.0602042035 2.1436344326 0.2055098394
H 0.4331957228 -2.1284874004 -0.7178347874
H -2.5089793402 -0.7162467055 1.7170208065
H -1.7979900428 0.3136261444 -1.117577069
H -0.1805140557 1.798739966 0.2115276082
