10
0
O 0.1555910916 1.9471557962 1.3341293358
C -0.1445120498 1.1125343345 0.5473317473
C -1.1657413684 0.3405307205 -0.1281077285
C 0.9947346598 -1.1235643239 0.0499663775
O 1.9648883179 -1.6228750885 -0.4466914778
C 0.3570788505 0.1194590322 -0.4421815358
H -1.7649786402 0.8075289054 -0.8997559435
H -1.661326615 -0.4493345482 0.4280751323
H 0.5078676608 -1.579940187 0.9384936616
H 0.7399820927 0.4978023588 -1.383220569
