16
0
C -2.3455930034 -0.313615734 0.3867345252
C -0.9969800328 -0.2790652335 -0.2904581028
C -0.3407863617 1.0434701636 -0.2574220955
C 0.9297627772 1.3586636411 0.0148607557
C 2.0875137429 0.5287419168 0.3555705434
C 2.4300806526 -0.6540960546 -0.1453773543
N -0.460168362 -1.2760084292 -0.8671996428
H -2.2444118169 -0.053895066 1.4429077527
H -3.0168258787 0.4225017639 -0.0620214502
H -2.8051508765 -1.2988811249 0.3079994525
H -1.0267088957 1.8768312153 -0.3870090135
H 1.1367291153 2.4254570879 0.0661697571
H 1.8286974126 -1.1493281712 -0.8947245103
H 2.7572980396 0.9937612904 1.0758169696
H 3.3368758854 -1.1406625809 0.1954154297
H -1.0562843981 -2.0980846846 -0.7832740164
