14
0
O 1.0260402515 0.1915881539 -0.1979728279
C 2.3196298408 -0.5565704248 -0.8564379659
C 0.0603569008 -0.7658408559 0.2546727901
C -1.0676538838 -0.0558460704 0.9777762813
C -1.7580419842 0.9805792117 0.1381447291
O -1.3134525275 1.3985308204 -0.9023842746
H 0.5641515404 0.7970183883 -0.8029548915
H 3.0577958769 0.2326558948 -0.6560158848
H 2.0580141627 -0.450983147 -1.9230692902
H 0.6152967698 -1.4436504752 0.8969256547
H -0.304354007 -1.331492945 -0.6059986717
H -1.8094354274 -0.7813871656 1.3235606211
H -0.6995170943 0.4518001765 1.8774014291
H -2.7136094187 1.3767824382 0.5286333013
