9
0
N -1.7983626784 -0.4279134417 0.3122929531
C -1.2710681369 -1.6093636067 0.7656209895
O -1.5439907838 -2.6977550338 1.1374260955
C -0.4095784376 -0.4629577111 0.5223618813
C 0.6538188843 0.2773185505 0.5433097519
C 1.7621039851 0.8980969574 0.582570312
N 2.8675388848 1.4181603049 0.6393235273
H 2.908679319 2.4162270569 0.4610995349
H -2.5564550364 0.2127089237 0.5105509544
