15
0
C -1.6822071233 -0.0024983356 -0.7721830228
O -0.8996906661 -1.6497915558 -0.5409384983
C -0.1232554265 -0.948491512 0.5072342745
C 1.302181351 -0.7306339871 0.1260976368
C 1.527562096 0.5498594731 -0.1492263282
C 0.3182813403 1.4173872549 0.04305305
C -0.7930218817 0.4178553775 0.408670791
H -0.3745568277 -1.6862054268 -1.346337459
H -2.6529235137 -0.3255776635 -0.3704215624
H -0.2770232954 -1.5269043873 1.4174573923
H 2.0320527215 -1.5298417557 0.0814695105
H 2.4866283107 0.9427808341 -0.4672320875
H 0.4979558153 2.1546949308 0.8313819324
H 0.0661317777 1.9655742517 -0.8689471613
H -1.3259836782 0.713930502 1.3149415318
