12
0
C 1.4309528636 -0.2847586536 0.1160548525
C 0.0110064558 0.1064460061 -0.2123644395
C -0.894109846 -0.8537799267 -0.9111007923
N -1.0605381754 -0.5206151796 0.5931963524
C -0.1989921238 1.5455964623 -0.3203894747
N -0.3723665204 2.6743297017 -0.444434703
H 2.0770234967 0.0084892258 -0.7117194514
H 1.4842330956 -1.369509026 0.2085639635
H 1.7955013516 0.1947030701 1.0270557127
H -1.7003537951 -0.3036889058 -1.4044075126
H -0.7835857831 -1.2390219478 1.2459248618
H -1.7763840197 0.1023001734 0.9447556309
