12
0
C 2.6420155783 -1.5151297339 -0.2934117158
N 1.9782649231 -0.2391582531 -0.4476992321
C 0.8574808937 0.0544315461 -0.1016052266
N -0.2107221653 0.4724351796 0.3138241401
C -3.2222971048 1.6104515044 0.2939816208
O -2.9816439386 0.8828565055 -0.6300552656
H 2.0619079657 -2.2219335829 0.3044785106
H 3.6090803421 -1.3587748568 0.184800142
H 2.8233446601 -1.9498203826 -1.2772930222
H -2.4634371679 1.837028727 1.0634752528
H -1.0358044587 0.3984060523 -0.2780264594
H -4.2143955277 2.0820152943 0.4079452555
