13
0
C -1.2158763828 0.3512644558 0.7273408055
C -0.0887615882 -1.2890123831 -0.9600199327
C 0.160774538 0.1027418086 -1.3913537089
N 0.0364164071 -0.0246621934 0.0779054092
C 1.2106090304 0.0616533465 0.8590851261
O 2.3192561625 0.0987434747 0.4235907223
H -1.2608774932 1.4305027574 0.8896175041
H -1.3007936982 -0.1746033248 1.6781278295
H -2.0265281099 0.0245425685 0.0828907705
H 0.8927706954 -1.7697315714 -0.8544558885
H 1.1402935486 0.4720514263 -1.6882714949
H -0.6662579871 0.6782196872 -1.8028649902
H 0.9774018775 0.0727969479 1.9368628481
