13
0
C 1.3577573341 -0.4722390475 -0.3316549442
C 0.3861112315 0.230805154 0.5999103758
C -0.7732705793 0.9090853887 -0.1544462013
C -1.5854235734 -0.070330521 -0.8714757924
N -2.1940906838 -0.8817553686 -1.4078971067
O -0.1089311808 -0.630047651 1.6004121913
H 2.1691893671 -0.9138337793 0.2463867788
H 1.7862178316 0.2252216334 -1.0540619338
H 0.8565857499 -1.2688649584 -0.8883282601
H 0.9090746409 1.0223660395 1.141608828
H -1.4125508919 1.431297018 0.5588211408
H -0.3930478177 1.6418370886 -0.8693464905
H -0.4920084282 -1.4073629966 1.1830804145
