10
0
O -0.1173205489 -1.1330841217 -0.7936539947
C 0.1349839457 0.2740426322 -0.7394048539
C 0.7474059588 -0.6627692346 0.1997056625
O 0.2991214766 -0.6709483775 1.4952005429
C -1.0127508499 1.1213462731 -0.2873248358
O -1.0784574462 2.2918080511 -0.5380526868
H 0.4751855034 -1.529516656 1.8869048642
H 0.7216930378 0.6898995469 -1.5533454987
H 1.7879727098 -0.9535288628 0.0658828655
H -1.791251787 0.5900227495 0.2894309346
