16
0
C -1.4645711368 0.9062742758 0.6593867436
C -1.6341934771 -0.5025596567 0.120009647
N -0.4538764342 -1.3171477855 0.3638258979
C -0.041691831 -1.9895040345 1.268970202
O 0.4502367294 -2.6664400909 2.0785396152
O 1.0757246789 0.169978265 -1.7378867748
C 2.2253403551 0.7644165616 -1.1792980287
H -0.607950994 1.3892838419 0.1887362207
H -2.3551618053 1.4968034536 0.4385196286
H -1.3165611339 0.8985947862 1.7405512044
H -2.5062465248 -0.9903609797 0.5605155335
H -1.7806778302 -0.4727271793 -0.9593654075
H 0.7868485542 -0.5377213037 -1.1519055691
H 3.069395065 0.067204246 -1.1300067389
H 2.507636815 1.5969029293 -1.8236069473
H 2.0415189696 1.1577046709 -0.1717682266
