14
0
C -1.9655707159 -0.0027637927 0.40910423
C -0.5547088255 -0.1448549497 -0.0588572291
C -0.0324852236 -1.2797053038 -0.5249694019
O 2.2553984392 0.4752771786 0.7483947754
C 1.4754161159 1.0718013987 -0.233147661
O 0.0975796072 1.0397056191 0.0635144886
H -2.5061878479 -0.9422070845 0.3156856253
H -1.9805462663 0.3171700104 1.452564071
H -2.4760996585 0.7642958237 -0.1762713834
H 2.0676281795 -0.4668790743 0.7692077951
H -0.6548851019 -2.1599118487 -0.5848983371
H 0.9826623316 -1.3752245853 -0.8865764514
H 1.7443184008 2.125431375 -0.2519271619
H 1.6400345654 0.6249802336 -1.2215883598
