15
0
C 2.2477945292 -0.5931642548 0.3436185812
C 1.919173748 -1.1088665618 -1.0212861486
O 0.810485828 -1.3500075296 -1.4187770405
C -1.4065021203 0.0928838689 0.7543122591
N -1.0671223641 -0.3824476705 1.836702395
C -1.5932097752 0.7058532316 -0.3861392149
N -2.260117491 1.9452907551 -0.5581891824
H 1.3589037454 -0.5249526901 0.9685775185
H 2.711983929 0.3924594171 0.2462668714
H 2.9916516894 -1.2460057106 0.8078736913
H 2.7891289382 -1.2662113168 -1.6938189495
H -1.6905739547 -1.1136890479 2.1753092932
H -1.1508915243 0.2495684341 -1.2630276301
H -3.0335903309 1.8695221193 -1.2037147983
H -2.5960118466 2.3269439561 0.3132903544
