12
0
N 2.0968955649 -1.1789031075 -0.6100994929
C 1.082205733 -0.490315958 -0.9008266023
C -0.3399059295 -0.7572064129 -0.4746056913
O -1.0450092501 0.4428370238 -0.1970911499
C -0.7588752272 1.0440250448 0.9835106243
N -1.2442105129 2.1348709011 1.3593736981
H -0.060062811 0.4935451196 1.6172324389
H 1.8529605194 -1.9627761101 -0.0023385687
H 1.2151410787 0.3859941289 -1.5405002205
H -0.880900836 -1.230659171 -1.2961759561
H -0.3660209122 -1.4349423836 0.3859658628
H -1.8726384172 2.5200289249 0.6558720575
