19
0
C 1.7310943902 -0.2705002072 -0.9911762797
C 0.898251509 0.4774484518 0.0136811967
O 0.5136070477 1.8084660642 -0.4954241815
C -0.9387516891 1.504236299 0.5621491256
C -0.5253677077 0.0353229097 0.3468532464
C -0.6152110397 -0.8002597483 1.6173770601
C -1.2220447829 -0.6777016782 -0.8132713032
H 2.6921176353 0.2245142995 -1.1429055322
H 1.9258906513 -1.2798559145 -0.6217856389
H 1.2232294065 -0.3459938147 -1.9519450766
H 1.4501539885 0.6310652637 0.9433187751
H -1.698024762 1.7743679616 -0.188153939
H 0.9961415979 2.4960344278 -0.0306571581
H -0.1443393868 -0.2821704065 2.4535649119
H -0.1409388981 -1.7785956654 1.4898971043
H -1.6600244035 -0.9760240135 1.8832471049
H -0.8145788663 -1.6775974097 -0.9944713607
H -1.1485344214 -0.104191792 -1.7395478707
H -2.2839192688 -0.7941760272 -0.5842871845
