11
0
N -1.7538965705 -0.4254496139 -0.9665499068
C -0.9027033286 0.2210592916 -0.153038909
O -1.1864835735 1.1282944958 0.5978204986
C 1.5493890513 0.3589558567 0.6245216515
C 0.5462760287 -0.3133166515 -0.2553064128
O 0.795925118 -1.2164658575 -1.0123421348
H -1.4047929695 -1.1657828157 -1.5498054452
H -2.7222303965 -0.1630324789 -0.9857483203
H 1.23245523 0.2820713986 1.6659830945
H 1.5802318774 1.4255930703 0.3951468481
H 2.5274145332 -0.0943396953 0.4842440363
