9
0
O -1.1099547637 1.6517135338 -0.022390961
C -0.3297104687 0.5744245693 -0.0072611107
N 0.9759629971 0.5380762922 0.010302101
C 1.2212563205 -0.8030187492 0.0198020758
N 0.161015919 -1.5679377611 0.0094646523
N -0.8462222685 -0.6576309621 -0.0078503183
H -0.5341685595 2.4228632076 -0.0184975942
H 2.2170229719 -1.2178605 0.0348668881
H -1.808788148 -0.9416776305 -0.018829733
