10
0
C 1.2547329634 0.7094642675 0.2319800674
C 1.1747293776 -0.5364230491 -0.4197291983
C 0.3535583927 -1.3009275432 -0.9024429963
C 0.037228805 1.2936669232 0.282219462
O -1.0578058433 0.8350123455 -0.3680259588
N -1.618500408 -0.4469093194 0.0768264111
C -0.9509943449 -1.4591936885 -0.3120081895
H 2.1193809128 1.1209431026 0.7298398475
H -0.1263508206 2.2340701272 0.8035743163
H -1.3867650345 -2.4191791657 -0.0569847614
