17
0
C -2.2293183647 -0.8507586101 -0.1479629312
C -1.5939966536 0.4466818146 -0.6332752567
C -0.1526760225 0.5543360049 -0.2317458492
O 0.766997803 -0.2554333439 -0.9852834919
C 0.8607837091 1.1710769737 -1.0766151656
C 2.7509172796 -0.2567193117 1.4682360328
O 2.6523788351 -1.2348907322 0.6294837984
H -3.2796004051 -0.9064210192 -0.4370820971
H -1.7165281292 -1.7145021405 -0.5745519758
H -2.1772779128 -0.9326872301 0.9400604269
H -1.6663217413 0.5211490283 -1.7216112136
H -2.124478735 1.3086655901 -0.2172420429
H 0.0602747284 0.5347863418 0.8352550235
H 1.9696472593 -0.9862476486 -0.0438855452
H 1.745649196 1.5943275608 -0.6135654801
H 0.5752755711 1.569515089 -2.0450676812
H 3.5277515825 -0.5985993668 2.1921184488
