14
0
C -1.7106668721 0.0960461258 0.5218340652
C -2.9483457825 -0.2036438794 0.165360527
C 1.8367598438 0.6119085523 -0.902547551
C 1.5472768336 -0.8088465889 -0.5001514658
O 1.6332713191 -0.373671885 0.8948838085
C 1.8898545879 0.8840331202 0.3989277839
H -1.1030200389 0.7856724913 -0.0546415025
H -1.2454000691 -0.3357762057 1.4003561208
H -3.5564369779 -0.8910591969 0.7425714407
H -3.4069684289 0.2293673547 -0.7165709661
H 0.5496780305 -1.1959958495 -0.7130355939
H 2.3134566028 -1.5555936447 -0.7100188412
H 2.0587121812 1.7196467538 1.0645058074
H 1.9470707707 1.1496958519 -1.8268626327
