15
0
C -1.7126823126 -0.7690859811 -0.1836236394
C -0.5528278433 0.1347298025 -0.5481052068
N -0.5018089293 1.420716065 0.2018159545
C 0.9216849302 1.2196831323 0.5858762972
C 0.8087674734 -0.1527827224 0.0261663754
N 1.5505481568 -1.194875084 0.1075390086
O 2.676540094 -1.2931692145 0.6761227169
H -2.6540619109 -0.3197429434 -0.5046250904
H -1.7527906694 -0.9172258165 0.895917387
H -1.6238968073 -1.7423767702 -0.6733396376
H -0.5128455465 0.2771267437 -1.6365655503
H -0.6619259909 2.2354481182 -0.3729256505
H 1.1133446422 1.2856676515 1.6591091291
H 1.6456516547 1.8503610843 0.0586288967
H 1.1863280589 -2.0432690656 -0.3404899906
