13
0
C -2.2445971675 -0.3040451406 -0.3197368191
O -1.2658228513 -0.8830789878 0.5269834422
C -0.009095147 -0.457123697 0.4034052993
C 0.4860046029 0.6120359024 -0.5024223633
N 1.7404861414 0.7556129527 -0.3553394536
C 2.110659804 -0.2178602174 0.6567939683
N 0.9462643812 -0.9453479446 1.0860101321
H -2.3486327931 0.7689124031 -0.1376091607
H -3.1825285738 -0.7961601893 -0.0745821032
H -2.0152776378 -0.4806747711 -1.3739790961
H -0.0932066751 1.2073887975 -1.1987422791
H 2.859346918 -0.8990497554 0.2419411636
H 2.5749409981 0.3017666475 1.4999312697
