11
0
O -1.4975608444 1.5987263068 0.3865120356
C -0.6230335118 0.59759176 0.1317066368
C -0.7662557698 -0.6637422357 -0.3767806386
C 0.5429883844 -1.2326277342 -0.3993378512
C 1.4129175081 -0.3053075794 0.0894378861
N 0.6835757917 0.8186741758 0.4138595527
H -1.6874982943 -1.1246782903 -0.6961534301
H -2.3776383342 1.3068298333 0.1439483141
H 0.8033070836 -2.2218808272 -0.7401529299
H 2.4786789948 -0.3399256655 0.2381734995
H 1.0395859921 1.6735972564 0.7979979252
