10
0
C 1.3296003224 1.9273719082 0.138987948
C 0.3895441678 -1.5737251497 0.3332540158
N 0.1347614217 -1.5539425956 -0.8845965674
C -0.8061147953 -0.8055239578 0.0603452772
C -0.8102964208 0.6724461831 0.0418377757
N 0.2661776149 1.3424800201 0.0153607444
H 1.834637191 2.1961826969 -0.7941814129
H 1.145446629 -1.9491996445 1.0097494138
H -1.782867056 -1.2573864818 0.1973811492
H -1.7499950747 1.2113630209 0.0388046562
