14
0
O 1.9735280718 0.3288631186 3.145076796
C 1.590629456 1.2858715393 2.6987858118
C 0.2918879519 0.9330718227 -1.2441957657
C 0.0193206076 -0.5067735569 -1.332965806
C -0.0969718417 -1.1301155631 0.0466588657
C -1.1613476574 -0.0474636399 0.3236392743
N -1.0853113749 0.4767102528 -1.073844242
H 0.8204243585 1.3332538803 -0.3828059634
H 0.4475604947 1.4747592609 -2.1687395989
H 0.0860839865 -1.0507390446 -2.2676339272
H 0.809644572 -1.1410358728 0.6540416571
H -0.5225221863 -2.1318956136 0.0298461409
H -0.9261150234 0.7066111735 1.0790086808
H -2.1541484153 -0.4481357572 0.5207290769
