13
0
N -1.9668950727 0.2919239269 0.3584674716
C -0.8368961136 1.0114161017 -0.2216605901
C 0.4474177842 0.6169965236 0.465175679
N 1.6041072167 -1.6782613057 -0.2854092419
C 1.3335827809 -0.3832419548 -0.0577811229
N 1.7602836761 0.7730328794 -0.2951148325
H -2.84411118 0.6733006345 0.0325982863
H -1.945190062 -0.6822142235 0.0865168735
H -1.0020417959 2.0802171694 -0.0597705093
H -0.7136729125 0.8636223033 -1.3031122623
H 0.4764769822 0.8438482628 1.5305929684
H 1.1373115969 -2.3676922324 0.2732063269
H 2.5137090997 -1.9169100853 -0.6425150466
