14
0
C 1.8613739818 0.3391151935 0.3261294838
C 0.8987697406 1.2084855841 0.0692700423
C -1.2886726645 0.7586435075 -1.230922673
C -1.5087444964 -0.5014908262 -0.8757597747
O -0.8648987366 -0.5054546856 0.3421151457
C -0.5570022556 0.9030455654 0.0881747793
H 1.636663853 -0.6895231048 0.5792485749
H 2.9025171127 0.6340321098 0.2878947808
H 0.0645972791 -2.6728201465 1.4252984146
H 1.1372998895 2.2393851752 -0.1795909519
H -1.5186791948 1.4029013673 -2.060111096
H 0.3521611944 -3.3086908488 1.6896380652
H -2.0011935161 -1.3905691864 -1.2447201108
H -1.0859461871 1.5114442954 0.82738232
