15
0
C -1.5682060625 0.6600179768 0.094814235
O -1.1336611679 1.0175599066 -1.2278908456
C 0.1458764627 0.4946584521 -1.3415310581
C 0.0917283115 -0.8447901766 -0.6490167152
C -0.3792764765 -0.161185935 0.6424247548
C 0.679251418 0.9190860195 0.8331981723
O 0.992882324 1.2539671282 -0.3897284183
H -2.4847733614 0.0707202099 0.0313742381
H -1.7570818786 1.5683547748 0.6720499067
H 0.5353418771 0.6236833643 -2.3452339807
H 1.0600378158 -1.3333394124 -0.5592121717
H -0.6401863123 -1.5126900583 -1.1007436506
H -0.5945528961 -0.7620679785 1.5195454049
H 2.4563148909 -0.6457756302 2.0534291889
H 2.7747080553 -1.3220706412 2.0531349396
