14
0
C -1.2232174735 -0.6426120265 0.4416321538
C -0.68019846 0.3946112166 -0.4963808062
C 0.2154941668 1.498838293 -0.015021452
O 1.3145630322 1.0748569792 0.812317681
C 1.9057085153 -0.1180331555 0.7612068504
N 1.2378052791 -1.0452358251 0.0724465854
C -0.082767704 -0.9643237118 -0.4862446536
H -0.9812533608 -0.555557327 1.4934887038
H -2.1961362191 -1.0624917514 0.2234224619
H -1.2959712302 0.6627605537 -1.3465304766
H -0.3269266169 2.2326465005 0.5822895971
H 0.6481464314 2.0104935996 -0.8784734098
H 1.653842712 -1.958654549 0.1144572797
H -0.2486350724 -1.6311687963 -1.3219765148
