12
0
C -0.1601070659 1.4025384098 -0.2776995045
C -0.241738118 -0.0508629184 0.0193400888
C -1.546115715 -0.6195450646 0.4350629343
O -2.5459971622 0.0315910512 0.5833817614
C 0.8201832266 -0.9010699612 -0.0091120103
C 2.119943175 -0.4640318486 -0.3052386138
H -0.0531106331 1.9842926278 0.6409999883
H 0.7160182357 1.6008206977 -0.8997677266
H -1.0780651184 1.7393924988 -0.7588137225
H 0.6389873745 -1.9423146091 0.2791883078
H -1.5511036948 -1.7199015315 0.5762095202
H 2.8443664955 -0.925349352 0.3850509767
