8
0
N -0.7059094029 0.9592921589 0.0641530204
C -0.2971736639 -0.4521069955 0.1981875339
N 0.5473796701 -1.0010537093 -0.8957727234
C 1.1076067771 -0.7206671844 0.1851612763
N 0.0605274334 1.888674796 0.0362392413
H -1.7365263029 1.073815914 -0.0092002607
H -1.0614770943 -1.0848435314 0.6409265501
H 2.0833535834 -0.7296664483 0.6451583622
