11
0
C -1.3524133691 -0.4874771055 -0.6881604941
C -0.2607348801 0.3458068566 -0.06422386
C 0.8767237392 -0.1408368405 0.3629703956
C 1.9960373993 -0.6404713308 0.7806371902
C -0.4959254836 1.7580227713 0.0621635138
N -0.7237445304 2.8810922534 0.1441451374
H -1.0525516772 -1.5330184676 -0.722735824
H -2.2738496304 -0.4023287071 -0.1100863493
H -1.5601851886 -0.1445884376 -1.7029515371
H 2.1039335597 -0.9895983014 1.8012192758
H 2.8544530612 -0.7129366907 0.1226715517
