17
0
C -1.0251701412 -0.3235834155 0.438790098
C -0.7752223767 -1.3847043653 -0.6465028121
O 0.5573989408 -1.9236800107 -0.64707613
C 1.5187631786 -0.9826900973 -0.4518579292
C 1.3264304354 0.2648265241 -0.8283919984
C 0.4268004462 1.2145979963 -0.9141029677
C -0.7789797111 1.1331568858 -0.0063189266
H -0.3996262547 -0.5683195164 1.3005089853
H -2.0587638231 -0.4184312868 0.7810763698
H -1.4067261841 -2.2569717728 -0.4816439104
H -1.0047609127 -0.9847483272 -1.6406744845
H 1.5485495199 1.272082426 2.6894929734
H 2.4053909862 -1.3697588319 0.034586765
H 1.6636589671 1.1538151398 1.9617322076
H 0.4388608169 1.9545118931 -1.7089518084
H -1.6382512433 1.4883420481 -0.5841589219
H -0.7118516444 1.7934317105 0.8638264903
