13
0
C 1.6646599561 -0.2195823737 -0.6930501958
C -0.3991018102 1.3024820143 2.6372693296
O 0.1805473602 1.886059746 1.8698468411
C -0.7069100173 -0.6877978548 -0.3763163166
C -1.9419642789 -0.3210355048 -0.033852153
N 0.2753492372 0.1187964336 -0.9089922103
H 2.2942260701 0.3923826536 -1.3390905616
H 1.8299101015 -1.2637507116 -0.9645332435
H 1.9941796727 -0.0804806952 0.3445405799
H -0.4056267219 -1.7276788636 -0.2786887255
H -2.2803938851 0.7058683124 -0.116605791
H -2.6527462286 -1.0575833313 0.3101595355
H 0.0736395441 1.1047021753 -0.8633520887
