12
0
O 2.135155326 -1.5871421006 0.297263546
C 1.3420623383 -0.7155586165 0.5176174251
C -0.0199494689 1.0918953067 -0.661054301
C 0.1524893519 -0.4050767708 -0.3389632555
C -1.157743607 -0.2072279307 0.4477350146
O -1.1785785921 1.1971191528 0.172346656
H 1.4517155706 -0.0599434295 1.4104367084
H 0.786145237 1.7521403882 -0.3270324689
H 0.1116223072 -1.0884752824 -1.1838715058
H -0.2452941242 1.3016486885 -1.7097075759
H -1.1083611275 -0.4127835724 1.5213976209
H -2.0209002114 -0.7236248333 0.0205431361
