12
0
C -1.9167060762 -0.3142174543 1.0408008004
C -0.7881478109 0.4090353045 0.3529323587
C -0.7814693694 0.6869807994 -0.9238803514
O -0.7638269745 0.9301651271 -2.058770962
C 2.7208431912 -0.2506952113 0.0578291303
O 2.5390454819 0.6109166573 0.8698409473
H -2.3662842913 0.3108405381 1.8146375436
H -2.7014660884 -0.5876270081 0.335722888
H -1.5596009101 -1.2303112757 1.5151336291
H 1.8780951399 -0.7733660992 -0.4325932102
H 0.0836783024 0.7485757021 0.9024575764
H 3.7391584054 -0.5629440799 -0.2389783501
