17
0
C 1.4583455502 -0.7225017531 -0.0587021173
C 0.1002565644 -0.0195862304 0.0126277271
C -0.6283097738 -0.0756496656 -1.4220809991
C -1.6280985429 -0.1553971993 -0.3803338872
C -1.0174283188 -1.0556503406 0.5651189346
O -0.8637920693 2.1559232772 0.6972811845
C 0.2627529798 1.3374077071 0.7109009114
H 2.1487770706 -0.1171846883 -0.6486899294
H 1.394097867 -1.7092676649 -0.5104189836
H 1.8669323635 -0.829328545 0.948274407
H -0.6380609989 0.8089193008 -2.0534245915
H -0.239287037 -0.9615857065 -1.9292940419
H -1.5990080765 1.5845494636 0.3741829072
H -0.6682335218 -2.0529119261 0.2869207699
H -1.3471337773 -0.9948222507 1.5992877972
H 1.093587627 1.8596831332 0.2204655941
H 0.579846094 1.1293300886 1.7437183168
