13
0
C -1.2613995533 -0.0879155387 -0.8028601732
C -0.0892312705 0.0814581453 0.164415043
O -0.5593764742 0.3682086019 1.4346789781
C 0.8335806444 1.1957165614 -0.3683268429
O 1.2565569063 2.0837857696 0.3052960325
C 0.7510294487 -1.1897826704 0.1806335886
O 1.0358645397 -1.7422226177 1.2055889105
H -1.859900013 0.823205722 -0.8033428343
H -0.9207597457 -0.2836097617 -1.8214514663
H -1.8920419934 -0.9140648449 -0.4753565519
H 1.0799652929 1.118712162 -1.449358394
H -0.0137619201 -0.1147257288 2.0679700422
H 1.0928311382 -1.5746508 -0.7989133323
