12
0
O 3.583513558 -0.0392535181 -0.8525548105
C 2.5119335042 -0.322083129 -1.0363506811
C 0.5276089587 0.619864641 0.9036108225
C -0.3853547606 1.1454643706 -0.1230698082
N -0.3476903927 -0.3343435088 -0.1188828389
C -1.4349619428 -1.0951895605 0.3395748284
O -2.363951714 -0.6483560952 0.9385155439
H 0.287368155 -0.782015441 -0.7699860979
H -0.0421685174 0.5243668148 1.8362957415
H 0.0358391971 1.5446926325 -1.0441891973
H -1.3839093423 1.5168450009 0.0986918258
H -1.3185427032 -2.1636442073 0.0958886717
