12
0
C 1.0579756047 -0.6231464451 1.3670199603
N 0.3389924116 -0.1734526253 0.2007485903
C -0.8823474825 -0.479822496 0.1072494103
N -1.6467387746 -0.1665740951 -0.9826512082
C 0.7972106283 2.0005065998 -2.0418385131
O 1.8533491859 2.3236186046 -1.8386025076
H 1.4963208015 0.2331025304 1.8852239182
H 1.8836312738 -1.273896851 1.0682428165
H 0.4295609848 -1.175129476 2.0813015647
H -1.4144879567 -1.0558528071 0.8763568417
H -2.642490012 -0.1400017104 -0.865212973
H -1.2531436648 0.5100467713 -1.6169978999
