14
0
C -1.353697851 -1.6331069393 0.9916394187
C -0.1994609506 -0.9340737506 0.3247026234
C -1.2626288574 2.3005905807 -0.3287525697
O -2.2975633878 2.0437575451 0.0247474556
C 0.7116012373 -0.2632670076 0.9800373019
O 1.5047666848 0.3329675854 1.5827742546
N 1.8235005606 0.9624413177 -1.5662229811
H -1.320585006 -1.5115762199 2.0744108534
H -2.3074140802 -1.2313300325 0.6417068198
H -1.3427019574 -2.7036370909 0.7767293697
H -0.0595280701 -0.9404617556 -0.7485096137
H 1.3042064968 1.7929610794 -1.3106264312
H 1.9976454114 1.0030930614 -2.5614361074
H 2.7178047695 1.0078686271 -1.095732394
