14
0
C 1.722590141 0.0198057582 0.0212124869
N 1.0855654032 -1.2949085739 -0.0145680928
C 0.5950725739 -0.2481979181 -0.8921042988
C -0.7762014931 0.3633676962 -0.6969915359
C -1.7150988413 0.0273215769 1.5907266294
N -1.0662404466 0.7121296281 0.6920757452
H 2.7334935653 0.05559455 -0.3661965247
H 1.5472488388 0.6444063867 0.8905284695
H 0.4777563652 -1.4055373652 0.7912030277
H 0.8224356772 -0.4229072917 -1.9397007749
H -0.8632842561 1.2608683045 -1.3147551167
H -2.0734369059 -0.8907316019 1.0797362975
H -1.5428764032 -0.3437131711 -1.0201393538
H -0.6698992185 1.5947000211 0.9899050416
