15
0
C -0.8902658099 1.3638356919 -0.2944174947
C 0.0169152503 0.2025480243 0.0742721662
C -0.334569045 -0.5542043089 1.3630204065
O 0.8855306233 -0.0028836079 1.9360848589
C 1.2680535108 0.6431993855 0.8535805905
C 0.3511836093 -0.6533166447 -1.139350224
O 1.2032343888 -1.7381543142 -0.8405567614
H -1.0996836773 1.9980400338 0.5686944004
H -0.4203613001 1.9867271629 -1.0573279339
H -1.8430661422 0.9991744647 -0.6863834775
H -0.2740377154 -1.6409217557 1.3253933976
H -1.2107773902 -0.2236298852 1.9216426537
H 0.785698251 -0.0083553722 -1.9125406567
H -0.5655069669 -1.0869268871 -1.54803846
H 2.0851654135 -1.399147987 -0.6693294656
