14
0
C -2.5483682081 -0.177365568 0.335800377
C -1.1318193665 0.0199695358 -0.1438260365
O -0.2760785315 -0.0096256048 1.02518045
C 1.0204059761 0.1324097306 0.9551152812
O 1.3794276861 0.2971776899 -0.3071974718
C 2.7778325619 0.4644443618 -0.5277280228
H -2.6538162866 -1.1352582352 0.8460154731
H -2.8364296685 0.614270383 1.0280409912
H -3.2331234817 -0.1606652704 -0.5138077342
H -0.8200280936 -0.7694546244 -0.8291465736
H -1.0031172544 0.9778845662 -0.6498327965
H 3.3039805159 0.4345500781 0.4253345371
H 2.9319552545 1.4245362555 -1.0191958791
H 3.1192828964 -0.3399672979 -1.1783995952
