8
0
O 0.4298459595 1.3623289135 0.3217767623
C -0.7651218709 0.7491403163 0.0738165189
C -0.5347949617 -0.5403345322 -0.1710884368
N 0.8449826262 -0.6700119339 -0.0586065318
C 1.4590203597 0.4861398984 0.2437314525
H -1.6585806579 1.3468553902 0.1070061407
H -1.1993565626 -1.3520742833 -0.4075890711
H 1.3593821077 -1.522849769 -0.1826728348
