12
0
N -0.8735218796 -0.9913693539 0.6656999597
C -0.2948857118 0.1752886389 0.115391421
O 0.2384344715 -0.0796046614 -1.1495490965
C -0.6547439969 1.5606960471 0.3820721922
O 0.4887507996 0.9165224254 0.9844925278
C 1.3277518747 -0.8892364671 -1.1758524882
O 1.8294879147 -1.2166840997 -2.2003669802
H -1.2135715909 -0.8349571619 1.6028704064
H -1.6058255004 -1.3622826356 0.0770978551
H -0.4146694286 2.3262117483 -0.3478494692
H -1.4635971517 1.7807823083 1.0717326753
H 1.6769091994 -1.1839067883 -0.1764610034
