12
0
C -1.3956779467 -0.0384587964 -0.3126586107
C 0.0814246055 0.0222010692 0.0235261756
C 0.6102338886 1.400301018 0.2831330443
O 1.7453824256 1.6529654197 0.5864129381
C 1.0625714153 -0.9849829878 -0.521348419
C 0.7855424208 -1.1136900901 0.7204416399
H -2.009062832 0.3295719219 0.514187091
H -1.6961428154 -1.0650165337 -0.5215877309
H -1.6302139523 0.5662544094 -1.1927978659
H -0.1346167251 2.2187053634 0.1740636586
H 1.5968174396 -1.2808554017 -1.4061185919
H 0.9091910763 -1.6007783919 1.6708006706
