12
0
N 1.1527997898 1.5108469252 -0.0168399982
C 1.1492116159 -1.012578102 0.0122521541
C 0.0461766741 -1.814569306 0.0206421024
N -1.1490455874 -1.0491508646 0.0113223163
C -0.7909184246 0.2179236875 -0.0027958882
O -1.6027967005 1.2627635311 -0.015105443
N 0.5357822356 0.2577258537 -0.0025510477
H 1.7570864604 1.5364828651 -0.8305036212
H 1.7574751631 1.5547968832 0.7957507293
H -0.0310545652 -2.8889318603 0.0325933454
H -2.1010005657 -1.3694642706 0.0144201828
H -1.0224320956 2.0414046578 -0.0233648319
