16
0
O -0.7271607386 0.2680005902 -2.4019683827
C -1.831321255 -0.7034918791 0.9704053465
C -0.5575239589 -0.9491391857 0.707908922
C 0.5988541435 -0.2331848793 1.3365185559
C 1.5082826093 0.4488855277 0.3297286694
O 0.7887498607 1.5111491963 -0.2851037334
H -0.3647047106 0.7337680162 -1.6347344163
H -2.1250295139 0.0669779501 1.6753300038
H -2.627262619 -1.264562603 0.4949655351
H -1.5294141151 -0.1382844521 -2.0720757393
H -0.3026704867 -1.7215252312 -0.014916708
H 1.2082967236 -0.9524679194 1.8941703549
H 0.2396519393 0.5111450082 2.0514386104
H 1.8422873372 -0.2714630089 -0.4272789028
H 2.3918683377 0.8425733176 0.8430979182
H 1.3886144461 2.0139865524 -0.8390300338
