13
0
O 1.1505744093 2.1840711232 -0.0242774687
C 0.7916623614 1.0335324197 -0.1071802921
C 1.8204851443 0.0696393654 -0.7237753435
O 1.6633230497 -1.1043880498 -0.8981534506
C -1.307587314 -0.5064985382 -0.3776127542
C -0.7517319774 -0.7907818776 0.9653299026
C -0.5327484336 0.5761161704 0.3473866136
H 0.0957564372 -1.4578367431 1.0242285018
H 2.7533488939 0.59937339 -0.9990870773
H -0.8346032617 -0.9820145626 -1.224411427
H -1.4204354356 -0.8155455493 1.8149320103
H -2.3698237682 -0.3307734174 -0.4796598838
H -1.1119941054 1.3925242693 0.758897669
