13
0
C -1.7945691021 -0.5054300099 0.5107735389
C 0.2692948798 0.0953066486 -0.9507147549
O -1.1816706582 0.5916518661 -0.1901822461
C 1.2195311934 0.0632224326 0.2498156049
C 2.5830454369 0.083588554 -0.2716237233
N 3.6504603624 0.1121534914 -0.6908900598
H -2.838048046 -0.2590331271 0.7020315917
H -1.6895325311 -1.4117659972 -0.0859194899
H -1.2673050165 -0.6090373761 1.4549608418
H 0.4472989187 1.0696844212 -1.4320215991
H -1.703198649 0.7666777149 -0.9807423902
H 1.1154842952 -0.8553690563 0.8351883646
H 1.1234369165 0.9150524379 0.9375223214
