15
0
C -2.4776404603 0.6520264753 -0.1205150716
C -1.1618973105 -0.0247703292 0.0576048864
N -0.1071599379 0.3561138268 -0.6502029981
C 1.1822932695 0.0334108179 -0.5642535998
C 1.6481699732 -0.868656986 0.5144024013
O 3.0462819095 -0.7863389733 0.7080684899
H -2.7021757051 1.3764868904 0.6714343895
H -2.5119711526 1.1974514724 -1.0692849369
H -3.2985406535 -0.0687354654 -0.1373459178
H -1.0134099927 -0.7911101374 0.8024118559
H -0.3211229241 1.0167019201 -1.3876342652
H 1.8234562229 0.3201868196 -1.3832050836
H 1.4435336548 -1.9291359876 0.3102551254
H 1.0983078797 -0.6272891846 1.4433623956
H 3.265076227 0.1405978408 0.827322329
