10
0
N -1.8660903094 -0.1742376125 -0.0899505103
C -0.4264626467 -0.3055355522 0.0066981433
N -1.0255437056 -1.4346519688 0.0819048907
O 2.2484347939 -1.1386900067 0.2429589176
C 1.9608443478 0.0332827821 0.1093216108
C 0.6214455983 0.5509619807 -0.0167244723
H -2.4018233661 0.1123325694 0.7172339643
H -2.3023194757 -0.0546610516 -0.9933699838
H 2.7585506094 0.8033079458 0.0746312907
H 0.4329651541 1.6078909139 -0.132703851
