21
0
C -1.9171357096 0.3194090767 -0.0791909803
C -1.8070050651 0.357286374 -1.5693784328
C -1.2586128273 -0.5898220892 -2.3164395366
C 1.4116507331 -1.8077767301 0.8276724312
C 1.571718577 -0.7658779972 0.0258873856
O 1.4589115785 0.5095130771 0.4571451615
C 1.643918989 1.5036388902 -0.5322996873
H -1.4325462866 1.1895187841 0.3707137769
H -1.4510812389 -0.5762914106 0.3326322016
H -2.9649463953 0.3435659148 0.2318158131
H -2.2166845692 1.2381262175 -2.059711224
H -0.3015383451 0.7920148303 3.3181124067
H -0.8405105253 -1.4864241449 -1.8701914292
H -1.2136871111 -0.5059249476 -3.3958470917
H 1.5146965001 -2.8066057005 0.430006149
H 1.1841214225 -1.6826621292 1.8782751751
H 1.7979083733 -0.8817531529 -1.0322178051
H 0.0743439544 0.7777398911 2.67360904
H 2.6543425773 1.4586870865 -0.950504646
H 1.5063305947 2.4648151759 -0.0411951804
H 0.9094827738 1.3961669842 -1.3359015272
