21
0
C -1.859141649 -0.3431064781 -1.2292827626
C -1.5231721914 -0.4546225026 0.2562338896
C -2.3464606208 0.5331872717 1.0758976808
C -0.0236868914 -0.2429821441 0.5320309978
C 0.8335774377 -1.2679513098 -0.1567247346
C 3.5003851985 0.9513488604 -0.191835159
O 1.2936679099 -2.2347308866 0.3884833464
H -2.9322776643 -0.4618517337 -1.3903902903
H -1.3538917699 -1.1045113031 -1.8264634989
H -1.5704015767 0.6368650909 -1.6207469883
H -1.7738735069 -1.4675379108 0.5901794501
H -3.4152862752 0.3717893388 0.9211579274
H -2.1196191879 1.5633583546 0.786272558
H -2.1421879712 0.4327425306 2.1436815355
H 0.1700211042 -0.3092569157 1.6043459174
H 0.2676095378 0.7542011398 0.1827217487
H 1.0213279434 -1.1022022673 -1.2382238486
H 2.9336951151 1.4135906259 0.6154543799
H 2.9544866033 1.0539538008 -1.1293715853
H 4.4658600882 1.4464026553 -0.2827021479
H 3.6529313663 -0.1040812175 0.028838584
