14
0
C -2.1147329311 0.1174344018 0.049996818
N -0.758043562 0.6080479628 0.0062693181
C -0.3964335354 1.6800819004 -0.7243359807
O -1.1260852456 2.3461157168 -1.4277555622
N 1.6874672616 -0.8476419301 1.0753535119
C 2.2316044531 -1.397299404 0.0791535985
H -2.5393631612 0.2131838045 1.0520107757
H -2.1607692785 -0.9318149604 -0.2494249926
H -2.7131500505 0.7086092826 -0.6403339128
H -0.0359325101 0.1479848064 0.5503479649
H 2.2366588061 -0.964722634 1.9240118797
H 0.6815369249 1.9028710362 -0.6181509853
H 3.1802691171 -1.9382959537 0.117516675
H 1.7359857114 -1.3373150294 -0.8899941082
