16
0
C 1.486021382 -0.9647221878 0.4972886841
C 0.4781409996 0.1774688901 0.5646134404
C 0.4425879974 1.0619536658 -0.7109670153
C -0.9301324957 1.2355397777 -1.249548876
C -1.7928777572 0.5082756917 -0.3247301832
N -1.4944931774 -0.9352145207 -0.4893785146
C -0.9596868168 -0.2705052763 0.6653730337
H 1.4679722898 -1.5661273282 1.4078799372
H 2.4995722257 -0.5792928328 0.3718819583
H 1.2816113133 -1.6308408484 -0.3450239227
H 0.6795535792 2.1077859647 -0.4566477348
H 1.1766779767 0.8136897063 -1.4832345359
H 0.712106737 0.7941845384 1.4370645675
H -2.8435353913 0.7311909237 -0.1950563701
H -0.8001349722 -1.1005476764 -1.2137347264
H -1.3840468901 -0.5866804876 1.6117282577
