14
0
C 2.4799813311 0.1726230099 0.035476793
N 1.288616396 0.392431008 -0.7515139054
C 0.1543316534 -0.3008335266 -0.8317518366
C 0.0202258851 1.0928035643 -0.3861262728
O -2.9627923877 0.2032776363 0.157162028
C -2.9636160422 -0.860645561 -0.3967865273
O -0.3075905594 -1.3910513554 -1.0126328236
H 2.9916446245 -0.7104668975 -0.3447846953
H 3.1428405163 1.0318867924 -0.0562376783
H 2.2386290249 0.0157685481 1.0919982047
H -0.2696126203 1.9079755935 -1.0385303031
H -0.2003342799 1.2333088894 0.670911841
H -3.0685149653 -0.9510644689 -1.4925053541
H -2.8720555764 -1.8108212325 0.1581785297
