16
0
C -0.9355756362 -0.4059481538 -2.1967326145
C -1.186288202 0.2842397078 1.3225946397
O -1.3230940068 -0.9997931223 1.3615226266
C 0.2908519107 0.7073229596 1.2827116049
C 1.3714127698 -0.3509568679 1.034659217
C 0.4265810804 1.8271666575 0.3506976279
N 0.5753280089 2.6795782003 -0.4013868238
H -0.0332416423 0.2036708936 -2.2224055332
H -1.3788706556 -0.4301511443 -3.1906787822
H -0.6935309413 -1.4242580477 -1.8911206608
H -1.6493561769 0.0293608076 -1.4979803294
H -0.4911006917 -1.5099009068 1.2995083264
H 0.4143046243 1.1372861793 2.2876789687
H 2.358035955 0.1079643154 1.0624794025
H 1.2542189809 -0.8198413212 0.055400274
H 1.3631086229 -1.1218721571 1.8103390562
