18
0
C -2.2231333411 -1.1160066906 -0.0008912773
C -1.8223407466 0.2581536798 0.5178181811
N 0.5911989436 -0.0419329504 0.174350622
C -0.4315372786 0.2930604758 1.1430522958
C 1.5252904105 0.7689837441 -0.0471885138
C 2.5828520495 0.4302307342 -1.0544268622
O 2.3616256435 -0.8104077728 -1.6529973825
H -3.2246452806 -1.0944839412 -0.4335868733
H -2.2229302348 -1.8542608897 0.8049493432
H -1.5300824192 -1.461422319 -0.7684459465
H -1.8601973134 0.9898004917 -0.2951597211
H -2.5389639301 0.5950658653 1.2725251414
H -0.2479511153 1.2789543737 1.5935871933
H -0.3795988863 -0.4511816356 1.9443414181
H 1.6107049596 1.7332492722 0.4712680282
H 2.6088073927 1.2250098955 -1.8127505705
H 3.5589211554 0.4482144076 -0.5491006143
H 1.5611169911 -1.1615977405 -1.2362894617
