14
0
N 0.6416663294 -1.2003033526 0.8122428247
C 0.7504345551 -0.1485229704 -0.1316073465
O 1.7043523508 0.5787520832 -0.8313229744
C 0.5712133168 1.3847425724 -1.3229796687
C -0.384610266 0.8258365462 -0.2349009499
C -1.3292613651 -0.3658863357 -0.5484098798
C -0.095898723 -1.2823638137 -0.5284142967
H 1.4305094771 -1.8354374403 0.7126064725
H 0.326695726 1.102415748 -2.3493771782
H 0.8048338574 2.4455737664 -1.2551213205
H -0.625173964 1.5193685964 0.5681078634
H -1.8179102878 -0.3294086388 -1.5228081457
H -2.0756533678 -0.5549175969 0.2250892372
H 0.1291523611 -2.1168291643 -1.1763546371
