15
0
C -1.2206584049 0.7065059436 0.3678912383
O -1.3791222806 0.9527123882 -1.073080106
C -0.8410406945 0.0752656097 -1.8519622156
C -0.2349587757 -0.9801228575 -0.9633495833
C -0.1941235571 -0.4117449507 0.4647258027
C 1.1909907122 0.0988203585 0.8540297204
O 1.63193156 1.1761360922 0.0557856159
H -2.2055869901 0.4348963891 0.7474454105
H -0.8981013915 1.648966829 0.8067429503
H 1.8006680612 0.8715817363 -0.8387556799
H 0.7286773252 -1.3197332031 -1.3508987666
H -0.9076725803 -1.8412849309 -1.0565783631
H -0.5003644516 -1.158755411 1.1992440329
H 1.1697439837 0.4828460995 1.8762290297
H 1.9067614839 -0.7329100927 0.8308459139
