14
0
C 2.2624492641 0.2007428146 0.4964574206
N 1.205823918 0.2147748891 -0.4932543256
C -0.0830634966 0.0387702951 -0.1488925172
N -1.0411476233 0.1370877131 -1.1253315739
N -2.2266620298 -0.3102595613 -0.5552023993
C -1.9207507874 -0.4220681016 0.8035443989
C -0.6041029114 -0.2714820532 1.1315499378
H 1.8590767672 -0.266888054 1.3926448253
H 3.1158245024 -0.3705842244 0.1285133073
H 2.5875998825 1.2131232823 0.7498686529
H 1.4121236631 0.6114384952 -1.3929709065
H -3.0248679669 0.257289172 -0.8126020829
H -2.7653770977 -0.6246992835 1.4533216757
H -0.8723740841 -0.1908883835 -2.0644684131
