12
0
N 0.5018985681 -0.3289177024 1.7524059026
C 1.5765045576 -0.6991803172 2.0198276303
C 0.2533083975 0.0976388117 -1.5033821369
C -0.6702749501 -0.7977062101 -0.7169181167
N -1.3634127429 -0.1070678003 0.3410595002
C -0.7857590132 0.1038968981 1.4314168317
N 0.5697155862 1.2522131185 -1.1146721804
H 0.6312712434 -0.3575815005 -2.4262446832
H -1.4124708398 -1.210036952 -1.4041830507
H -0.0696558912 -1.6407933358 -0.3479440749
H -1.2790180727 0.6436892411 2.2328774079
H 1.2127721569 1.6966207489 -1.7646620298
