19
0
C 2.3025985824 -0.4073638569 0.7751396152
C 1.59683525 -0.9982186337 -0.4052227813
O 0.9233152339 -1.9924695095 -0.3689959185
C -0.7089019524 1.8270014497 -0.2573434326
C -1.2245171106 0.804186473 -0.8470622475
C -1.8266427629 1.1525834184 0.4810301901
C -1.5829599472 0.3108553501 1.7141064658
H 1.9412071433 0.6125593528 0.931270102
H 3.373038173 -0.3396110163 0.5643443852
H 2.1325774085 -1.0057100216 1.6682347789
H 1.7277831931 -0.4496704625 -1.3611663375
H 0.1198415339 -1.9879345341 -2.7350613526
H 0.0077025899 2.6304608807 -0.2549636391
H -0.0033063939 -1.7962069753 -3.4470893728
H -1.2438541964 0.1250928829 -1.6819302019
H -2.800614962 1.6456961065 0.4775115423
H -0.62570921 -0.2102140194 1.6495304247
H -2.3623315956 -0.4456255822 1.8340454313
H -1.5783379772 0.9253816977 2.6184993483
