16
0
C 1.3089403181 -0.94791613 0.622068724
C 0.9780320495 -0.3288038944 -0.7076019065
C -0.3727802345 -0.2747889224 -1.1536661717
C -1.6039275398 -0.7917987132 -0.4477786781
C 0.360169776 1.1314213612 -0.7523668952
C -0.0242483745 1.6255831158 0.4329699794
N -0.3534161081 2.0053505193 1.5285286342
H 0.5268509847 -0.9305699349 1.3985203567
H 1.5375764523 -2.0013318455 0.4404080237
H 2.2118930632 -0.5018417159 1.0443399396
H 0.3351489959 2.0313675273 2.277756425
H -0.5214591172 -0.1335431655 -2.2248277381
H -2.5066204042 -0.2811410015 -0.7854149777
H -1.7141675023 -1.8542295516 -0.6770064577
H -1.5372743419 -0.694941714 0.635883323
H 0.6298939829 1.8361750652 -1.5290165806
