16
0
O 2.8068791292 -0.1480410492 0.2383116953
C 1.7496367395 -0.5617575712 0.6273473282
C 0.7247553821 -1.2521383627 -0.2312487823
C -0.724319227 -0.8722289404 0.0779470716
C -1.1654062082 0.476525707 -0.4888241843
C -0.4364342041 1.6809764768 0.0954260793
H 0.6267321668 1.6791107131 -0.1528254446
H 0.8620007752 -2.3221089195 -0.0301945399
H 1.4774906299 -0.4774660009 1.703404656
H 0.9790437767 -1.0879749415 -1.2807782495
H -0.8757461306 -0.8802939481 1.1642595131
H -1.3781878968 -1.6514029573 -0.3204889705
H -1.0370343921 0.4640591941 -1.5762415935
H -2.2391020533 0.587761824 -0.3125121556
H -0.5258216798 1.7067542837 1.1848592969
H -0.8537298074 2.6122544922 -0.29091272
