17
0
C -1.7916889536 -0.6575838396 0.3162244975
C -1.1886576835 0.3558449165 -0.6532237903
O -0.8212356141 1.5443942292 0.001025931
C -0.0618660741 -0.2562953883 -1.4472205631
C 1.134762057 0.2854589284 -1.6121586308
C 1.9507534896 -0.1159919049 1.8737334986
O 1.1340248885 0.7377661295 2.085370473
H -2.6337578369 -0.2093271173 0.843853841
H -2.1432897549 -1.5485421258 -0.208280092
H -1.0487241801 -0.9683731473 1.0551974685
H -1.9664666752 0.6485785936 -1.3683699594
H -0.2109275929 1.3244384516 0.7186543438
H -0.2888583525 -1.2115709101 -1.9161455743
H 1.8975560068 -0.2044115671 -2.2052861757
H 1.3742290929 1.2494998149 -1.1775560644
H 1.9806353564 -0.6621350096 0.9148054333
H 2.7053248268 -0.3846590537 2.6339693633
