10
0
O -0.1521553116 -2.3156396199 0.2983220101
C 2.3098357208 -0.3841869151 0.0616647594
N 1.1177834103 -0.5077689754 0.3961545056
C -0.8316390702 2.1274114051 -0.6593062378
N -0.9861500732 0.9558581238 -0.396023755
C -1.0904624844 -0.2988421893 -0.2557043486
N 0.027009441 -1.0935297014 0.1183266772
H 2.9263948733 0.0699843127 0.849829013
H -1.0091413037 2.882147148 0.1082298227
H -1.9991312025 -0.8529515885 -0.4229644468
