10
0
O 3.0929684736 -0.706925337 -0.3829813239
C 1.8614302175 -0.9029498774 0.0080599273
C 0.7180157135 -1.043769396 0.3283541897
N -2.4951390203 0.0266077415 0.3603077975
N -1.8409911026 1.0181548023 0.0208349183
C -1.210822975 2.0044136962 -0.1144610225
H 3.6898862485 -1.2756459378 0.1122825096
H -0.3047957872 -1.1610991219 0.6093030501
H -3.2338931688 -0.1362187577 -0.3219426943
H -0.2973325992 2.2342981876 -0.632252352
