13
0
O 0.5972924473 -0.3121858969 -0.8433587566
C 1.6465668175 -0.2708284117 0.1538220141
C 1.0305815627 -0.6707004357 1.4397502987
C -0.1704599748 -0.6902172497 1.5802953335
C -1.3433575698 -0.4699296997 0.755932752
C -0.6568102228 0.1913831536 -0.5084583475
O -0.6227809332 1.5654806689 -0.2451049492
H -0.2226629854 2.0008738598 -1.0018453745
H 2.0617520504 0.7372944913 0.2256392229
H 2.4113013716 -0.9506510399 -0.2155923437
H -2.0755426521 0.2362965591 1.1443865065
H -1.8444442628 -1.3974746308 0.4777382944
H -1.2700456482 -0.0330003683 -1.3872016506
