16
0
C -1.8196942245 -0.4580740554 -0.0751327866
C -1.3634322735 0.6501757263 0.830793494
N -0.3859100143 0.4093254319 1.885908283
C 0.0151625422 1.2249948626 0.7448476314
C 1.0248459067 0.7548530672 -0.2108009276
C 2.3186713736 -1.1061737193 -0.8518088484
O 1.4704240077 -0.4477642428 -0.1119566508
H -2.2938567452 -0.0503331509 -0.9702018992
H -2.5512683638 -1.0902957676 0.432905105
H -0.989483485 -1.0903368002 -0.3936627254
H -2.1496528578 1.3345109473 1.1386084986
H 0.006307556 -0.52211168 1.7917853135
H 0.1174907676 2.2823139778 0.9751275564
H 1.4054453543 1.3803368597 -1.010201818
H 2.5519858995 -2.096031966 -0.5042681512
H 2.7707735566 -0.6161614906 -1.7022450746
