12
0
O -0.762823465 0.8112177259 -1.5509053057
C -0.1453114235 1.0986626354 -0.3422726207
C -0.6607014091 0.3247216389 0.8334239622
C 0.5075137676 -2.2999457582 -0.215357427
O 0.9718459656 -1.1255325167 -0.4830557922
C 0.7010992903 0.0446027081 0.2954517332
H -0.0896604955 0.6656779458 -2.2200082505
H 0.1520447895 2.1346402204 -0.2041003008
H -0.7427662517 0.7954640701 1.8033033145
H -0.1464618348 -2.1978962691 0.6896160386
H -1.4438501862 -0.3832990419 0.5937946855
H 1.5805312527 0.3349926416 0.854355963
