13
0
C 1.159014842 0.2853242248 -0.5349963211
C -0.319279053 0.017585419 -0.2654126828
C -0.6182503508 -1.4653251092 -0.0373375681
C -0.9944227785 0.8246879505 0.8058611921
O -0.2138688427 1.8166309153 1.1596517788
H 1.7665770385 0.0178447718 0.3326912499
H 1.3492921823 1.3345903639 -0.7601926948
H 1.5047959311 -0.3122821802 -1.3805215969
H -0.9098898349 0.329505735 -1.1439785949
H -0.0806064738 -1.8359168344 0.8387311036
H -0.3053763852 -2.0602591463 -0.8972381556
H -1.6830658812 -1.6244760122 0.1328708326
H -0.6772353938 2.3368329021 1.8240794571
