12
0
O 1.5628075753 1.8663410534 1.2576845261
C 0.8936928501 1.0195131104 0.6807102404
C 1.5852747401 -0.1527027724 0.1295221456
C 2.218054475 -1.0791212908 -0.2938692841
C -0.5173054744 1.1456940747 0.5294987981
C -1.2841044217 -0.8649613033 -0.6804477233
N -1.3777121255 0.2884506266 -0.0773141706
H 2.7927806368 -1.895769312 -0.6640349151
H -0.9752405371 2.03149081 0.9404496064
H -2.192679363 -1.2944606192 -1.0698781352
H -0.3302593453 -1.3526809163 -0.7769499985
H -2.3240400103 0.6462175388 -0.0448750898
