11
0
O -1.995043078 -0.1122667208 -0.3585128338
C -1.6032583618 0.3315536448 0.6954509038
N -0.3129557622 0.6605976307 0.9456414049
C 0.7180597267 0.4042249129 -0.0316284431
C 2.1834433866 -1.5694660695 0.1451364364
C 1.0325854367 -1.0772266768 -0.1673351162
H -2.2720766585 0.5213754845 1.552045284
H -0.0474236201 0.8785615041 1.8898257126
H 0.3774183024 0.7688195439 -1.0004495227
H 1.6112936155 0.9595992126 0.246627154
H 0.2529440127 -1.7435714664 -0.53562098
