14
0
O -1.4950223418 -0.1857291565 1.4810325955
C -1.076073016 0.1620680217 0.1542980609
C -0.0766264242 1.3053472796 0.2830052063
O 1.2023805837 0.8205687666 0.7269691293
C 1.7085387446 -0.1299198603 -0.0597537716
N 0.9021725478 -0.9385969606 -0.6881302891
C -0.4676774027 -0.9600540899 -0.5996286202
H -1.3913491711 -1.1377383895 1.5408300612
H -1.9560667518 0.542795786 -0.3798951023
H 0.046456951 1.816801715 -0.6782691201
H -0.3877622479 2.0166635729 1.0431659446
H 2.7782815989 -0.2584831795 -0.0812116402
H -0.9670876973 -1.4347880425 -1.4299148133
H 1.338962627 -1.6284684629 -1.2793126412
