13
0
O 0.1220508374 1.6423320489 -0.1951621406
C 0.9038638164 0.7523840812 0.4526251731
C 2.1706478219 0.4213662443 0.5436573296
O -0.9402020663 -2.2423347757 -1.3936969953
C -0.7516181403 -1.0833260313 -1.1491093172
C -1.3822644125 -0.3772582536 0.0285251436
C -0.5052117191 0.6536727924 0.6870713396
H 2.464257907 -0.3998455088 1.1802413681
H 2.9255901943 0.9631477233 -0.0091381964
H -0.1154858007 -0.458880678 -1.8046499942
H -1.6916903619 -1.1259758281 0.7599000922
H -2.2912342907 0.1164423761 -0.3345494098
H -0.9073847853 1.0977838095 1.5936866072
