13
0
C 1.798949839 -0.0557506044 -0.1878964761
C 0.3284201707 0.0869627429 -0.019209724
C -0.4748251771 1.1129324142 0.2635075994
C -1.8663242334 0.6721058745 0.3117005796
C -2.0433226656 -0.6471540708 0.0659704447
N -0.5589286866 -1.0697451555 -0.162873666
H 2.2314264638 -0.7484901725 0.5404354071
H 2.0657499161 -0.4183141239 -1.1852576475
H 2.2799930838 0.9118187958 -0.0500541948
H -0.1255803653 2.1237062795 0.4310261976
H -2.6874434631 1.3425717373 0.5255932488
H -0.5185137439 -1.4941935034 -1.0875043728
H -0.3638501385 -1.8099092137 0.5085026039
