10
0
N 2.1471669002 -0.332153149 -0.2807081059
C 0.902997254 -0.2011671039 -0.1171673198
N 0.2017211513 0.976542367 -0.0550497171
C -1.1465827469 0.7097363643 0.1361102009
C -1.2673758251 -0.6126684468 0.1891246919
O -0.0274309857 -1.1970135951 0.0361013909
H 0.6446855371 1.8701763481 -0.1395034323
H 2.4150165496 -1.3082590103 -0.2892634804
H -1.8913091171 1.4812831088 0.220038808
H -2.1070587173 -1.2697728831 0.322375964
