8
0
O -2.9274245424 -0.2636376851 1.308673272
C -1.8150996868 -0.2051225671 1.4370804251
C 0.7535252942 0.6135737869 -1.368599574
O 0.5794215936 1.4256629494 -2.1757475261
C 0.9521698687 -0.3257581541 -0.46506212
O 1.2592714583 0.0079546136 0.8388706557
H 0.4514237424 -0.0647850535 1.3603277336
H 0.969765272 -1.3581078899 -0.7925038663
