14
0
O 0.4813239034 1.9783802135 0.8625580954
C 1.5148055484 0.9882218174 0.8759770166
C 0.5829218867 1.1329796178 -0.2451098935
C -0.3912038007 -0.8454386596 -1.3358095962
C -0.9820099869 -1.7058822221 -0.5035119087
C -1.1373884666 -0.5970395667 0.5120605779
N -0.5349635092 0.3002130584 -0.5126007708
H 2.5258517921 1.3775820437 0.7957271249
H 0.9479651302 1.5995120558 -1.1596235344
H 0.0307579027 -0.863656463 -2.332842717
H 1.3786740671 0.190337246 1.5985450104
H -1.3465096097 -2.7169733342 -0.5762828971
H -0.5422406619 -0.6893776157 1.4201538122
H -2.1554331954 -0.3003011912 0.7670226805
