18
0
C 1.9560105514 -1.6831831968 -0.8878515277
C 1.0168635275 -1.1450992772 0.1834180086
C -0.5854013688 1.3494900585 1.0533032056
C -1.2328181264 2.5120584295 0.4396397535
C -1.2143178623 0.0795808367 0.6431451076
C -0.2247317791 -0.4931441944 -0.4129825689
H 1.459435095 -2.4299840129 -1.5131152199
H 2.8356066537 -2.1529116743 -0.4447685776
H 2.3041397857 -0.882045586 -1.5446716598
H 0.7066447833 -1.9608622187 0.8441726108
H 1.5371086395 -0.4209543612 0.8132049636
H -1.9500907045 2.7459740666 1.250345132
H -1.8315434587 2.340140887 -0.4673534291
H -0.5971981169 3.3927002491 0.3483716846
H -1.2642850502 -0.6329823026 1.4701560701
H -2.2096787994 0.1764603681 0.1817332892
H 0.0721606311 0.2955144386 -1.1139690566
H -0.780235401 -1.2229475099 -1.0082397858
