17
0
C 2.0080221573 0.4596493148 -0.5493851908
O 0.604289606 0.4124572843 -0.6253734264
C -0.0068313494 -0.4660965849 0.2985215692
C -0.1419194402 0.2191374727 1.6588878494
C -1.3390491909 -0.9013548975 -0.2390710117
C -1.8103061785 -0.6068959054 -1.4379904752
O -0.8737972063 1.4153636179 1.5700601359
H 2.4453254513 -0.5329257234 -0.7108349923
H 2.3619213145 0.8464096358 0.4130814834
H 2.3475218625 1.1288694059 -1.338502201
H 0.6242897206 -1.3593598097 0.4311363424
H -0.6693326605 -0.4408219217 2.3515783493
H 0.8576855034 0.4007434322 2.0767994302
H -1.9301202724 -1.5014198018 0.4472902877
H -1.2372731649 -0.0046638889 -2.1313234277
H -2.7840376492 -0.9577338504 -1.7559411286
H -0.6157305032 1.84432722 0.7483594064
