12
0
C 1.4069769089 -0.5923655686 -0.0853943951
C -0.01470241 -0.3666145456 0.3882103309
C -0.4733003279 1.0760067284 0.5259364206
O -1.8827174751 0.7253460467 0.1848880062
C -1.0788567653 -0.1848642849 -0.6821868621
C -0.8580307426 1.2954003696 -0.9239067502
H 1.5438925974 -1.621661132 -0.4209184892
H 2.116287566 -0.4122755341 0.7241395454
H -0.2838599 -1.0323650286 1.2167065559
H -0.3400386628 1.8159865228 1.3077639245
H -1.6421427029 -0.8896671859 -1.2843045441
H 1.6585499144 0.073603612 -0.912621743
