15
0
C -1.8806857897 -2.2609738855 1.1092241838
C 0.7162805623 0.2621277899 -0.9394380698
O 0.4971836906 -0.8268603498 -1.4010109106
C -0.2236134964 0.9193427813 0.0607322357
O -0.069422459 2.3038194785 0.198997075
C 1.9298830429 1.0059691674 -1.2699634174
C 2.9314416854 1.6173595259 -1.5123701745
H -2.6020070282 -1.4513134489 1.2166446287
H -1.1972838757 -2.2512723454 1.9578662044
H -2.4105034466 -3.2120732891 1.087415146
H -1.3186336156 -2.1352674869 0.1846756265
H -0.0931237932 0.3823385768 1.0109564632
H -1.2421589122 0.7306547883 -0.2784026988
H 0.827145432 2.5011107809 0.4804849688
H 3.8260900033 2.1465649164 -1.7473622612
