12
0
O -1.7974030184 1.2766381761 -1.0565641851
C -1.5511523022 0.7266515797 0.0911956171
C -0.8597799733 -0.5973158549 -0.0469482829
C 0.377546038 -0.6739063073 0.8562952769
C 1.4475522846 0.2014728889 0.3843848757
C 2.303696546 0.9266363739 -0.0333723653
H -1.4623372473 0.7603444986 -1.8190867271
H 0.0957036402 -0.3863233701 1.8712658205
H -0.5900258026 -0.8508817518 -1.0882495257
H -1.5925778685 -1.3343459745 0.3018209868
H 0.7457028397 -1.7011034738 0.8951064676
H 3.0689658637 1.5761892153 -0.3871519582
