18
0
C -1.5602525127 -1.0856940698 0.5761837642
C -0.7682453117 0.1613787411 0.9477792348
C 0.2690115043 0.5668524431 -0.0930618512
C 0.8491375315 1.9626560199 0.1627114495
C 1.4272366024 -0.397878742 -0.1891198859
O 1.6506161606 -1.299462702 0.571146947
H -0.9103780973 -1.957605838 0.495773767
H -2.0755616481 -0.9564793584 -0.3792787085
H -2.3164805717 -1.30459101 1.3316809227
H -1.4551350544 1.0009402181 1.0909495772
H -0.2618245829 0.006680721 1.9045692756
H -0.1933736921 0.5758432504 -1.0899049955
H 1.2910946585 2.0185745072 1.1600424607
H 1.6230030245 2.2184135203 -0.5645345465
H 0.06547862 2.7180315087 0.0951068799
H 2.122491497 -0.1970062617 -1.0337171176
H -0.0266909719 -1.7815780072 -2.7772879269
H 0.1462948439 -2.2704359408 -2.2421892467
