16
0
C -0.8554406141 -0.9505614025 1.3938652074
C -0.7428573701 0.4028762748 0.7459863204
C 0.5702028326 1.0784281632 0.6513187779
C 1.6709494227 -0.1240388499 -1.3246954495
C 0.3173565688 -0.6422133295 -1.4821814882
C -0.1351378479 0.5619276088 -0.6294885099
H -1.0201844099 -0.8414211302 2.4674955017
H -1.6888188744 -1.5225131644 0.980141882
H 0.0582601977 -1.531749971 1.2600005596
H -1.6008803738 1.0497835396 0.8952797407
H 0.6203428955 2.1553421205 0.739157431
H 1.4356593861 0.5519214667 1.0201227809
H 1.7800554703 0.7080661289 -2.0455085016
H 0.1176068048 -1.5996348973 -1.002736338
H -0.1906587865 -0.5784093506 -2.4469379273
H -0.5451243018 1.3599757928 -1.232156987
