11
0
C -1.4618908634 0.2930247878 -0.6174623545
C -0.1009216089 0.0104748174 -0.1162803197
O 0.5633532382 -1.2530765547 -0.3798174132
C 0.628499562 -0.0125858377 1.2667629306
O 0.5070935961 0.1500393476 2.4248368457
C 1.6007975005 -0.388112478 0.1131575321
O 1.0587835074 0.7310186778 -0.6085087051
H -2.1665353602 -0.3993936672 -0.1581376582
H -1.4925833672 0.1802334302 -1.7005091498
H -1.7405670533 1.3114207792 -0.3485124581
H 2.6447688488 -0.6610123025 0.0031347502
