17
0
C -1.2913911598 1.2089577845 0.8383177853
C -0.4454220084 -0.0617416653 0.8466467201
C -1.6365768534 -0.8388275394 -1.2409140685
C -0.7411737237 -1.0105540982 -0.2816538427
C 2.8081468086 -0.2494057133 -0.9021644812
C 1.9161951711 0.0217700829 0.0042330328
C 1.0269773807 0.2911552363 0.9147513442
H -2.3556093137 0.9744493396 0.9001479716
H -1.0374680735 1.8428961775 1.6895545494
H -1.1155709798 1.786901774 -0.0712429127
H -0.6696747933 -0.6027474428 1.7763067124
H -1.7826227336 -1.5903482971 -2.0069959113
H -2.2552872738 0.0485414546 -1.3056667534
H -0.1458786019 -1.9202237529 -0.2782952349
H 3.0035690657 0.4384707028 -1.7165677669
H 3.3786092623 -1.1705424495 -0.8698681862
H 1.3517288265 0.8345874063 1.799025042
