15
0
O 2.5033169982 0.3999184177 1.0953796693
C 1.6852999293 -0.2094635846 0.1290139097
C 0.219262267 -0.1636492532 0.4936100081
O -0.1795921534 1.264759968 0.531690276
C -1.309713936 1.5516292616 -0.0294946483
C -1.874362993 0.256166073 -0.5530198201
C -0.7418312538 -0.778068288 -0.5037610724
H 2.2333117035 1.3177952641 1.179785532
H 1.8180217535 0.2483610467 -0.8610009905
H 2.0014358206 -1.252631273 0.0590953653
H 0.0785691346 -0.530123106 1.5129664537
H -1.0746025148 -1.7661487479 -0.1913821003
H -2.32410764 0.3997096424 -1.5352995709
H -2.7002595171 0.0140638812 0.1276458821
H -0.2660715988 -0.8751313021 -1.4827328935
