14
0
C 0.378436843 -1.1200271622 -0.3590618746
C -1.0180745741 -0.5060877255 -0.2466339892
C -0.7549833624 0.8432680055 0.398991168
O -0.4056355527 0.6066920626 1.7734332412
C 0.6421948227 1.3110807382 0.0793531679
C 1.2735419331 0.1176842516 -0.5155932314
H 0.4733691661 -1.8267999619 -1.1838252108
H 0.6419643789 -1.6451381028 0.5599442545
H -1.4541157941 -0.3423844204 -1.2361855507
H -1.7200108386 -1.1066998039 0.3335322474
H -1.5651453422 1.5683183408 0.3052038479
H -0.1176692832 1.4480348149 2.1460401062
H 1.2422050439 0.4811578586 -1.5654609573
H 2.3329445595 -0.0089028955 -0.2922102191
