10
0
O -1.801711217 0.3212177567 -0.0191143116
C -0.5964333648 -0.3800787556 0.1840159342
C 0.5170842087 0.5597771299 -0.2512473827
C 2.8144027691 -0.578967375 0.0585648208
N 1.7872237617 -0.0531261151 -0.0862678909
H -2.5380493596 -0.2386316358 0.2287953025
H -0.4527732861 -0.6494411027 1.2367965166
H -0.552329634 -1.2974620129 -0.4141595274
H 0.483813325 1.4746023959 0.3418989523
H 0.3849097969 0.8292097145 -1.2999404139
