11
0
N 2.5365753513 0.1700564174 0.3825233536
C 1.4723878456 0.5772792265 -0.0443125517
C 0.3423991563 1.1340124235 -0.4203804605
C -1.00107404 0.5910593154 -0.2543740683
C -1.318984402 -0.6154653617 0.2048691698
O -0.3655126673 -1.5109549636 0.5788738131
H 3.0541844818 -0.4498381067 -0.2344152143
H 0.4473370368 2.0932169381 -0.9134578509
H -1.8207986042 1.2358370981 -0.5401251995
H -2.3513356607 -0.9353251006 0.2942152632
H -0.7759234977 -2.3113938864 0.9049957454
