12
0
C -1.7434264223 0.3201978835 0.1813715805
C -0.2750520429 0.0898527149 0.0414290795
C 0.250277679 -0.9492532025 -0.6017741521
O 1.5999727095 -1.1007965108 -0.6926457101
C 1.7233800366 1.2480650406 0.7687245721
O 2.8246259659 1.5633128211 0.9701404632
N 0.5429627496 1.0517297096 0.6407113485
H -2.0307283312 0.3454601398 1.234804631
H -2.0284795356 1.2773098073 -0.2606023979
H -2.3076037847 -0.4705649888 -0.3125226633
H -0.3763331164 -1.6987117653 -1.0698586839
H 1.8135300923 -1.8968526493 -1.1783350674
