12
0
C -2.9152040637 0.608491582 0.4108261746
C -1.6302625681 0.512445177 0.1874026919
C -0.3865198477 0.4248542952 -0.0388369392
C 0.9023143178 0.3269090955 -0.2518619854
C 1.8431616608 -0.4208415023 0.6508153819
O 2.5696275815 -1.4097603558 -0.0522507186
H -3.5613022785 1.154865966 -0.2665817428
H 1.9426920899 -2.0338324761 -0.4240368297
H -3.3689055804 0.1484575605 1.2810308254
H 1.3399828119 0.7866871121 -1.1343208686
H 1.2910003623 -0.8461274168 1.4954930622
H 2.5931195141 0.2655999628 1.0505889481
