17
0
C 1.9089382278 0.0949284762 -0.0728366963
C 0.4051486277 0.083737812 -0.0207847532
C -0.3978090835 -0.7320197605 1.0135316997
C -1.5842723463 -0.5043352131 0.0115928813
C -0.4702561736 -0.6017078224 -1.0905281508
C -1.7939498211 0.95493987 0.1043684548
C -0.3568674527 1.4084907668 0.0868238028
H 2.2631927637 0.6678584771 -0.9334249216
H 2.3255140487 0.5544928524 0.8268606613
H 2.3162692288 -0.9152099273 -0.1521670594
H -0.4956793083 -0.3348090398 2.0257275584
H -0.1216312239 -1.7872600452 1.0437331648
H -2.4530860264 -1.1568624458 0.0010065546
H -0.6352992983 -0.083115972 -2.0369896047
H -0.2033445384 -1.6443617167 -1.2702038677
H -0.2047676658 2.1007592337 -0.7496102192
H -0.1516679582 1.9891304546 0.9941824953
