16
0
C -1.7268904194 -0.6427881766 1.0661128659
C -1.1605191948 0.990998467 -0.9505915613
N -0.934341533 -0.2741905157 -0.0970624405
C 0.0064648922 0.842595555 -0.0370826143
C 1.3621578227 0.5595250228 -0.621793764
C 2.2577619036 -0.4475124206 -0.0608580317
O 1.5193880527 -0.702472675 -1.2496101917
H -1.9959533243 0.2632959219 1.60657462
H -1.1684877289 -1.3109065806 1.7251512418
H -2.6406732314 -1.1351681843 0.7333692634
H -1.9556530342 1.531154756 -0.4209471416
H -0.5883896806 -1.0534359983 -0.6438697346
H 0.0493675352 1.2921720457 0.9571021528
H 1.7878281623 1.3905489083 -1.178335908
H 3.331586382 -0.3613765397 -0.1950954492
H 1.9405263961 -1.0153975854 0.8109906931
