14
0
C 2.2827903814 0.6500637915 -0.3462475749
C 0.545811966 -0.9028043735 -0.4374657784
O 0.8832799026 0.3455041016 -0.2804274395
C -0.9441724264 -1.0253204957 -0.3297125883
C -1.7840468366 0.1810298595 0.0712040575
O -1.8024831895 1.1963222983 -0.9119016631
H 2.833429974 -0.2708227517 -0.5295557887
H 2.4332754686 1.3660850559 -1.1532151116
H 2.5709819815 1.0985985511 0.6035309783
H -1.2617505956 -1.4042341442 -1.3104491533
H -1.1195490445 -1.8675663341 0.3499270507
H -1.4353827122 0.5762609627 1.0336706742
H -2.8225213279 -0.1268813308 0.2056175797
H -0.9153045414 1.5564878097 -0.9662102426
