17
0
C 2.4562825436 0.3543425957 -0.026029522
C 1.1623881625 -0.456215788 0.0435682473
C 0.2110123813 0.0863106354 1.0804367642
C -2.3885565564 -1.352716431 -0.855466179
O -0.1134583872 -0.5171789657 2.0711483237
C -0.3109801155 1.4304996242 0.8218187378
C -0.7368238219 2.5261258263 0.5903426658
H 3.1173622155 -0.0532631935 -0.7909489915
H 2.9853405199 0.3265420171 0.9278569252
H 2.2566679467 1.3980319823 -0.2741324073
H 1.3587318531 -1.4975727144 0.2996794286
H 0.6534878767 -0.4285756366 -0.9246455013
H -3.432363264 -1.5684446573 -1.0782411676
H -2.1915427892 -0.297865342 -1.0459660484
H -1.7502378326 -1.9666200198 -1.4898905788
H -2.187942338 -1.5766433892 0.1912703848
H -1.1247243946 3.5001254564 0.4013029184
