11
0
N 0.8934421673 0.511803979 -0.3603400382
C 0.5661218717 -0.7852921416 -0.5926185068
C -0.692363826 -1.0176063181 0.2273601258
O -0.8623983673 0.1541538712 1.000319112
C -0.1022949753 1.1934943834 0.4315193013
O 1.1379065612 -1.5748303566 -1.3023733206
H 1.6204058719 0.9746059488 -0.8757779509
H -1.538491337 -1.1884635048 -0.4486413868
H -0.5819318426 -1.8799860734 0.8843138659
H -0.7343834744 1.8459095703 -0.1881627049
H 0.3447743504 1.7812866415 1.2365955033
