16
0
C 1.8266677491 1.1300995602 -0.4160679089
O 1.0697561689 0.0417515984 0.1406453731
C 1.1275224745 -1.1004644508 -0.4782373319
C 0.2514256432 -2.0667889256 0.2464554458
C -2.0257191373 0.8036117377 -0.9197684981
O -1.5090802858 1.4787867772 0.2055605609
H 2.5531066325 1.4428503687 0.3322885446
H 2.3176061788 0.7853617527 -1.3238318297
H 1.1267012329 1.9394929107 -0.6193227675
H -1.2413587913 0.5322200517 -1.6373663047
H 0.8463419817 -2.9554722577 0.471940591
H -0.5093491944 -2.4019771799 -0.465327059
H -0.2226926966 -1.6837041879 1.1564877706
H -2.7198145809 1.4815478851 -1.4156001681
H -2.5729014225 -0.1044711581 -0.6408197093
H -0.8402159529 0.9186995177 0.608381291
