12
0
C -1.6791862221 0.7211778133 0.1633044309
C -0.7430109194 -0.4834461737 0.1957575239
C 0.6595305285 -0.0935106991 0.5892422834
C 1.7045330377 -0.2629040501 -0.1572498481
C 2.7401981664 -0.4383147789 -0.9087932439
C 3.7572407893 -0.6137969695 -1.6551051444
H -2.6934288086 0.4088446967 -0.0891581571
H -1.7132532356 1.2212581248 1.1332608386
H -1.3528621217 1.4500924286 -0.5797120132
H -0.7232043324 -0.9794508459 -0.7753215468
H -1.1039802101 -1.2179355685 0.9211627958
H 0.815799328 0.3775880221 1.5571800811
