9
0
O -1.9881486549 -0.3507603867 0.2027765958
C -1.1918575113 -1.3538430326 0.132149478
N -0.470089019 -2.2510156803 0.0717704135
N 1.7685699023 0.2539821369 0.8192584265
N 1.0119514898 0.8032587755 0.0507019663
C 0.1457698928 1.3834677989 -0.550989496
H -1.4604270239 0.4629060272 -0.0257448942
H 1.9121763172 -0.7172183366 0.5255018654
H 0.3542016071 1.9979916977 -1.4178553552
