14
0
C 1.0157874444 0.431854767 0.0399535606
C 0.9827061603 -1.0827116654 0.2109792595
C -0.3185001128 -1.7734307111 0.5336251532
O -1.3837068417 -1.0360477178 0.4988120816
C -1.4358573298 0.3951539131 0.195411745
C -0.2733442848 0.8662313337 -0.640369569
H 1.0912106434 0.9213691189 1.01573152
H 1.8915998185 0.7393004767 -0.5346510283
H 1.696301064 -1.4394466974 0.9582992157
H 1.2956413968 -1.593944978 -0.7104573844
H -0.3385029661 0.4307266719 -1.6423828899
H -1.4700998048 0.9089665397 1.1586215646
H -2.3958941849 0.5249259544 -0.3016130665
H -0.3332880024 1.9509159942 -0.754257162
