13
0
C -1.8693081987 -0.2078507947 -0.6024542247
O -1.0381226486 0.1096665004 -1.7345548519
C -0.4517366043 0.0687193362 -0.482087266
O 0.0720690405 1.2490894688 0.0656032178
C 0.7832687226 -0.737297736 -0.1469896612
C 1.3320432201 0.6089635765 0.3548072646
O 1.7095038962 0.7272795099 1.6718750382
H -2.2416421855 -1.227836047 -0.5720643793
H 0.9956569655 0.4097610067 2.2324024081
H -2.5755664743 0.5697099566 -0.3280084708
H 1.2861676695 -1.1747615569 -1.0062474469
H 0.6555287272 -1.4831406802 0.6363993743
H 2.1388298696 1.0472274598 -0.2335120024
