10
0
O -1.5426439389 1.3352903563 0.6199239886
C -0.4478654531 0.5283115932 0.9306015057
C -0.4794238364 -0.9428371995 0.7291413022
O 1.4124612178 0.666939932 -1.9297459652
C 0.2794714566 -0.2635522816 -0.0854558095
C 1.1300063934 -0.3023725769 -1.2797914491
H -1.88710696 1.0826223823 -0.2398874547
H 0.0735964241 0.9632287382 1.7770898026
H -0.9231279995 -1.8878422517 0.9981906693
H 1.4959066959 -1.3104026923 -1.5543675898
