13
0
C -1.9787602669 0.7288845385 -0.7185027592
C 0.6516347993 -1.1824731241 1.0306623588
C 0.1808419321 -0.3899437331 -0.1639335441
C 1.6515902958 0.1127018434 -0.0622711797
N 1.8596870339 -0.7779377591 1.1073941191
C -0.9086594302 0.6048784705 0.0514388144
H -2.1316697405 0.0908203356 -1.5826993423
H -2.7398794266 1.4718170675 -0.5144802038
H 0.1669081744 -1.9064599291 1.684189847
H -0.0195516469 -0.9994852337 -1.0483592375
H 1.7686107633 1.168269425 0.1879609867
H 2.2986548145 -0.1350318518 -0.9049022222
H -0.7887333023 1.2610629504 0.9112553625
