14
0
O 2.0966607705 -1.1461306417 0.3142619513
C 1.6703376498 -0.0544122212 0.5763914561
C -0.1667651827 1.7253779612 -0.1376066629
C -1.4616748469 1.0831905526 0.1736392655
C -0.9906480079 -0.3383315166 -0.1109597493
C 0.2916651137 0.3728377807 0.2921559255
N -0.4065371293 1.3457737982 1.2186956634
H 0.7585286856 -2.9763617946 -1.0629294771
H 2.2999605675 0.7188173852 1.0612702061
H 0.2481124667 2.6436370253 -0.5163620088
H -2.436798942 1.5437363502 0.247925278
H -1.0540411848 -0.6882000526 -1.1409509377
H -1.3344959073 -1.097376267 0.5930749996
H 0.333136947 -3.4162043596 -1.4904969098
