16
0
C 1.8597992894 -0.0422551603 0.9308747704
C 0.5762539241 -0.5728525263 0.4344797878
C -0.0461094739 -1.7205350194 -0.3081095689
C -0.7052868936 -0.5142654611 0.296979326
C -2.011561695 0.135524418 0.5141407073
O 0.2615035065 2.0949062142 -1.5233126854
H 2.5408746916 0.1493288632 0.098684968
H 1.7225403273 0.8856364271 1.4872505874
H 2.3427171535 -0.7724570105 1.5838604896
H 0.1741190604 1.2377944977 -1.091881327
H 0.0668263692 -1.793621044 -1.3908131485
H -0.1421305427 -2.6886744031 0.1862606747
H -2.4875790835 0.3628330768 -0.442318434
H -1.9101313443 1.0616417487 1.081233741
H -2.6799386122 -0.5341864881 1.0596436807
H 0.1707893231 2.7363088671 -0.817683569
