13
0
C -1.2845461862 -0.4859617659 0.0083171748
O -0.4575711003 -1.5393126742 0.0013937057
C 0.88556719 -1.3957691641 0.4278110791
C 0.2257676603 1.5647540391 -0.1016844413
N 1.1212519864 1.4029216481 -0.9857616198
C -1.0397356401 0.829128053 0.0396759291
H 0.9422074281 -0.7450239879 1.3038961132
H -2.3133672101 -0.8310814197 0.0162832075
H 1.2234542915 -2.3963786 0.6891457002
H 1.525541885 -0.9863228407 -0.3555545101
H 0.3848521266 2.3779452645 0.6115513407
H 0.8486369707 0.6624446008 -1.6329402458
H -1.9214174021 1.4479528472 0.1714535669
