11
0
N -1.9884109259 0.6328345378 0.1115143908
C -2.4694046582 0.5274961702 1.2124516945
O -3.0146715145 0.519841892 2.2379199154
C 0.7287340068 -1.3396705488 -0.922836073
C 1.2262229414 -0.2264195501 -0.4657838449
C 1.7062211103 0.8890207675 -0.0069968936
H -1.2133314203 0.0953881963 -0.2490842158
H 1.0464817084 1.6932919077 0.2976606076
H 0.5107254991 -2.1670183301 -0.2571270092
H 0.5454100304 -1.4760350014 -1.9824331763
H 2.7751942188 1.0418909596 0.0798736013
