17
0
C -1.993426288 -0.0165624115 -0.0736644342
C -0.5082267653 -0.096867718 -0.3936770019
C 0.2906612909 1.034540904 0.2380086835
C 1.6053946402 -1.5358258324 0.2365723683
C 1.7411140675 0.8914288722 -0.144453114
O 2.2854246151 -0.4379286517 0.1359101128
C 0.1117529163 -1.4091614731 0.0773266795
H -2.1588458874 -0.0523930975 1.0068491896
H -2.4311634469 0.9112479841 -0.4496666733
H -2.5381741873 -0.8508684541 -0.520679271
H -0.3844511121 -0.0257669308 -1.481206863
H -0.0690839396 2.0137693779 -0.0899920041
H 0.1857823953 1.0002604036 1.3280982943
H 1.8928615098 1.0600143451 -1.2128014483
H 2.3915370192 1.5671409069 0.408597192
H -0.2516577374 -1.6703071704 1.083599914
H -0.1965310904 -2.2602370544 -0.5366806241
