15
0
C -2.7203366225 0.8056983499 0.2966878623
C -1.3315118533 0.3186766081 0.0260607786
N -0.3534936158 0.993579642 -0.4059122674
C 1.5825708396 -1.2557480514 -0.6281992275
O 0.8722977124 -2.1056081382 -0.1569963475
C 2.666652879 -0.5464818434 0.1212902088
H -3.4360586089 0.2427654378 -0.3072501371
H -2.8289617488 1.8691751183 0.0785914005
H -2.9802348621 0.6281405841 1.3431103332
H -1.1450754621 -0.7403571236 0.2226753831
H 1.4647828085 -0.9559270178 -1.6875952259
H -0.6202304806 1.9659338914 -0.5636733855
H 2.4402205099 0.5215072081 0.1193393221
H 3.6210163246 -0.6840721886 -0.3937279256
H 2.7338671802 -0.9161974765 1.142972228
