8
0
O -2.8127919549 -0.3997098962 1.3035576578
C -1.7331061784 -0.6560064104 1.1570797173
C -0.4466751128 1.6795707022 -1.3391308074
C 0.4394482775 0.8761043006 -0.9448999996
C 1.3852585914 0.020653673 -0.526059506
O 1.2069522267 -0.9190142471 0.3632265505
H 0.280029495 -0.9042539657 0.6757532663
H 2.4045326555 0.0410048436 -0.904665879
