16
0
C -1.9039677611 -0.4379952684 -0.0477853731
C -0.6986841903 0.4747614455 -0.2781579306
C 0.0823563885 -0.0093400401 -1.4722156553
O 1.2618335347 -0.2501890429 -1.4755263492
C 0.1781986228 0.6029911488 0.9623290091
O 1.22292861 1.5310441804 0.8024293862
H -2.5127082943 -0.5330845721 -0.9489148728
H -1.5855771534 -1.4394786606 0.2506741103
H -2.5407008696 -0.0378502855 0.7419412784
H -1.0621134754 1.4740843249 -0.5538012943
H -0.5112812447 -0.1467213509 -2.4005010271
H 3.1928092885 -1.6208280656 0.9619486229
H 2.8778597523 -1.3692096043 0.3344152509
H -0.4310456776 0.9579474136 1.7962814195
H 0.564552866 -0.3874402175 1.2366043479
H 1.8386746037 1.1546775944 0.1669050773
