7
0
O 1.3219913903 0.8637837805 -0.7549138153
C 1.1015460293 -0.0101066594 0.0247347691
N -0.1125801198 -0.2148180951 0.7431224553
C -1.2771485169 -0.2044812647 -0.0542326509
N -1.1796864622 0.9483759354 0.3481711034
H 1.8481434836 -0.7592929658 0.3374318212
H -1.8604288043 -0.8903827309 -0.6509246828
