15
0
C -1.9033531621 0.0489561929 0.4220509823
N -0.4616675213 0.098304918 0.3820782644
C 0.4599320481 -0.9016270301 0.5905875492
C 1.5170160564 0.0941411338 0.0626061452
O 2.6856667531 0.3747343688 0.7622710853
C 0.3650716073 1.0775695344 0.0373372568
H -2.212528979 -0.5580463286 1.2709963698
H -2.2984318723 1.0584505853 0.5193762337
H -2.2780816291 -0.3981988868 -0.4995553114
H -0.3808476822 -0.9826201915 -2.4765675652
H 0.2497612678 -1.895535524 0.1936849318
H 1.7812561109 -0.1879623035 -0.9613724668
H 2.4919776728 0.2420940059 1.6930423285
H 0.2181638745 2.1378586216 0.185554226
H -0.2849935447 -0.248778096 -2.3666780295
