17
0
C -2.1839599252 0.1448743696 0.2420950239
C -0.6807538499 0.1600759308 0.4044543315
C -0.0128723028 -1.135314441 -0.0334813723
C 1.5051071141 -1.0045197926 0.0935683946
C 2.1404249314 0.2822084517 -0.2346737757
C 1.2168958559 1.4064543165 -0.2866673857
O -0.1846298805 1.2352692893 -0.3737361107
H -2.6257422104 -0.6575830694 0.8356561742
H -2.4456830982 -0.0125669634 -0.8059298244
H -2.6121441752 1.0942499162 0.5645057254
H -0.4323604724 0.3469267687 1.4637920052
H -0.2873986317 -1.3311515967 -1.074099445
H -0.3811875615 -1.9749415473 0.5619117478
H 1.8120789702 -1.0637923742 1.1566329848
H 2.0573443344 -1.8329820601 -0.3579902279
H 1.5067469395 1.915590227 0.6625531903
H 1.5005219624 2.1143885746 -1.0688594361
