14
0
O -2.8679459942 -0.8012626442 -1.2855468005
C -3.1855993286 0.2667129837 -1.129133416
N -0.9098577449 0.6058923886 1.0657854891
C -0.1683853132 -0.6447986686 1.0439933084
C 0.7459967049 -0.6979301904 -0.179702749
C 1.7686650424 0.3458938832 -0.1524971478
C 2.5923651631 1.214143298 -0.0989732508
H -1.5007170196 0.6639106747 1.8833243999
H -0.2729359313 1.3926287698 1.0946694455
H -0.8833271748 -1.4678975715 0.9689667551
H 0.4382784237 -0.8158751297 1.9439444162
H 1.2348045921 -1.6738791819 -0.2292096333
H 0.1431625674 -0.5862165378 -1.0841101347
H 3.331426013 1.9790419261 -0.0624736821
