13
0
O 2.640267359 -0.4090096154 -0.6622043803
N 1.6273462364 0.5115731946 -0.3940110203
C 0.6286846841 -0.0902168831 0.1439815458
C 0.6626121396 -1.4763403513 0.5058517711
C -1.8727549311 0.1897511181 -0.0030262767
C -0.5613777127 0.7338735696 0.5591634428
H 3.2957926457 0.1077178581 -1.1348259898
H 0.7733504499 -2.1026483868 -0.3947865287
H -2.0625517833 -0.8285831739 0.3469086108
H -1.8563009454 0.1757063378 -1.094546066
H -2.7135257181 0.8077801161 0.3133830133
H -0.3803470221 1.7539053254 0.2172654603
H -0.600130402 0.7448868907 1.6511564176
