13
0
O 1.8610021926 0.8670701805 0.2846865188
C 1.4877182977 0.0041622532 -0.7639942963
C 0.2284563285 -0.7941243072 -0.439454919
C -0.972120339 0.1014510702 -0.2682249605
C -1.5715388417 0.3005246202 0.8765130589
N -2.0599963301 0.5628108446 1.9627320782
H 1.096235407 1.4023945472 0.5147068352
H 2.3275170708 -0.6765895683 -0.9149564977
H 1.3422928287 0.5624285163 -1.6997855117
H 0.3998447172 -1.3672795593 0.4739676803
H 0.0413982347 -1.5106635559 -1.2448559348
H -2.831772286 -0.0318055036 2.252109672
H -1.3737872805 0.6230844622 -1.1304287235
