13
0
C 1.9459655885 -0.1825394266 -0.1274114176
C 0.6832318499 0.3378919391 0.5024797671
C -0.393135637 0.9414244241 -0.3641993091
C -1.1454946115 -0.1109475579 -0.0159160883
N -2.3700447436 -0.6701863231 -0.2483531448
O -0.2628219537 -0.7668356822 0.7931059364
H 2.5014924623 -0.8105192703 0.57186345
H 2.5844908201 0.6550831213 -0.4162674063
H 1.708365761 -0.7627527312 -1.0199304754
H 0.8800074854 0.8607021791 1.442280927
H -3.0772346263 -0.0347889457 -0.5746289534
H -0.4919511514 1.8185678312 -0.9761906895
H -2.6848452434 -1.2895325577 0.480474404
