13
0
C -0.91522678 1.2895627708 -1.5497671046
C -1.1899622203 0.5517660924 -0.3242644797
N -1.3388927393 -0.0391670295 0.6479247488
O -1.4590028992 -0.6623814091 1.6792064349
C 1.2999510317 -0.6305898942 1.952248561
O 1.6377887055 0.1219780641 1.0793786291
H -1.231168576 0.7121598502 -2.418526756
H -1.4443998455 2.2422464186 -1.5484648932
H 0.1561817479 1.4782800575 -1.6227159804
H 1.1767067871 -1.7419072955 -1.5548657433
H 1.1681712713 -1.7119708265 1.772610445
H 1.1106033565 -0.282058798 2.9821230251
H 1.3640141603 -1.2478980007 -1.0264598867
