13
0
N 1.672859873 -1.5900139697 -0.4880460196
C 0.9185858843 -0.6200486147 -0.2433400755
O 1.0740589824 0.4050697957 0.5818020222
C 0.1431766829 1.4875387654 0.1891104067
C -0.9695655933 0.9016781407 -0.6348701984
C -1.4980891136 -0.3201335433 0.0029772912
N -0.3437526185 -0.4816507869 -0.9142090003
H 2.5505507896 -1.5076132063 0.014505702
H -0.2200824446 1.9503974678 1.1068117866
H 0.7486172287 2.202334052 -0.3685796203
H -2.4180314235 -0.7448750007 -0.3842393737
H -1.2553083772 -0.6399685144 1.0167783991
H -0.43431187 -0.9795745855 -1.7877023201
