14
0
C 1.4939040907 -0.748610074 -0.563835964
C 1.0852907434 0.7196980029 1.4439642521
C 0.5019160355 -0.3359756763 0.5241304026
C -0.7830974233 0.2633856342 0.0234169911
N -1.5859145701 -0.359947156 -0.9082551532
C -0.886141181 1.4637789815 0.5805469142
O 0.2367424817 1.7078240271 1.4181452398
H 1.0744388781 -1.527239457 -1.2022833745
H 2.4110723657 -1.1224323107 -0.1107655996
H 1.7451079361 0.1040845506 -1.1959356177
H 0.2997523715 -1.1993629584 1.1739417124
H -1.5863191943 -1.365072824 -0.8734225025
H -2.5085827258 0.0219148662 -1.0287323335
H -1.607413808 2.2612573939 0.5233750329
