15
0
O 2.7766652247 -0.1263871972 0.7683505906
C 1.6727766825 0.2862146621 0.0920168278
C 0.5295637713 0.5584075547 0.7020987815
C -0.6935773033 1.0160075579 -0.031091012
C -1.8223681783 0.0074326108 -0.0001363493
C -1.658634598 -1.2395189403 0.3674371877
O -1.5281810099 -2.3427103714 0.6944647885
H 3.4840529494 -0.3135142294 0.1516813018
H -0.2055177735 -0.9127474629 -3.1403364743
H 1.7810184751 0.3887328066 -0.9856916241
H 0.4645503161 0.4296750211 1.7784046931
H -1.0612085085 1.9471298017 0.410598304
H -0.4361513194 1.2509822748 -1.0691950052
H -0.5681334088 -0.9101844971 -2.4881103161
H -2.8272923193 0.2810754085 -0.296020694
