14
0
C -0.528810822 -1.1836158633 0.429677431
C 0.2853774268 -0.1183326877 -0.2728708874
C 0.5481017479 1.1157122585 0.5664909721
O 0.0763568977 1.3050299303 1.6506130054
C 1.5955619417 -0.6219531432 -0.8459828399
O 1.9427998305 -1.7671421808 -0.825148962
H -1.4749198142 -0.772690683 0.7786126634
H 0.0102585508 -1.5690188299 1.2946298544
H -0.7249599406 -2.0166504239 -0.2436702847
H -2.4339385075 1.7151006521 0.2118770311
H -0.2520099972 0.2774043913 -1.1518200764
H 1.2141735919 1.8723058442 0.1008094779
H -2.7758131228 1.6873640952 -0.4501331607
H 2.2363462171 0.1544696401 -1.3150292239
