12
0
O 2.6081314554 0.9088761403 0.2103607798
C 1.4912907599 0.5790088115 0.4896091929
C 0.7669407198 -0.5653255872 -0.1830878855
C -0.7236195331 -0.6040404658 0.1036874064
C -1.4653808381 0.604339791 -0.3993801054
O -0.9354594012 1.5511199493 -0.9127680857
H 0.9685138965 -0.49922859 -1.253432606
H 1.2378409259 -1.4870420864 0.1718256696
H -1.1925083274 -1.4893738257 -0.3371604211
H -0.9278476012 -0.6815722186 1.1793302942
H 0.9379897963 1.0959452288 1.3036487663
H -2.5658468528 0.5798448527 -0.2625340056
