13
0
C -2.4304463953 0.4186480993 0.2376220707
O -1.8256337592 -0.7060651114 -0.434631842
C -0.5444850123 -0.7849493504 -0.6489504102
O 0.0440206501 0.3105067742 -0.1695297443
C 2.2966478127 -0.7272918389 -0.0220531408
C 1.4345715197 0.3954172257 -0.3294374604
O 2.1530239437 0.3995689273 0.8529600099
H -2.2686947733 1.3338168211 -0.3296511697
H -3.4902209452 0.185467967 0.28730135
H -2.0161137345 0.5306781041 1.2381105471
H 3.2620678027 -0.8166688034 -0.509150962
H 1.8400893857 -1.6453364481 0.3283662357
H 1.6915575052 1.1610796335 -1.054032484
