14
0
O 2.0610102917 0.7475017041 0.0688139655
C 0.9565126115 -0.0256336804 0.5000889417
C -0.2932142633 0.7664690172 0.213080218
C -0.7532923405 0.9060198037 -1.2369331976
O -1.9695750971 0.2095974461 -0.8405270999
C -1.6195659324 0.0256042156 0.4194491964
H 2.8656394247 0.24544183 0.2053946205
H 1.0055568657 -0.2378390551 1.5744145463
H 0.9207600184 -0.9867857487 -0.0294404788
H -0.2746740618 1.7075932489 0.7681391024
H -0.9797599643 1.9031743591 -1.6120319156
H -0.2057457562 0.3311147621 -1.9837462618
H -0.8175536626 -3.2498577106 1.1460899008
H -1.1908261338 -2.6021361921 1.1601204622
