14
0
C -1.627440898 -0.2408567718 0.9106209595
C 1.1126884169 -1.117251898 -2.4676775462
C -0.7393288813 0.9004626105 0.4427149827
N 0.6848746477 0.5992037189 0.5411065349
C 1.4248195469 -0.0985047749 -0.3260893709
O 2.5719217764 -0.4105690045 -0.2376828853
O 0.6123570676 -0.4443998161 -1.470765326
H -1.408694793 -0.5102403508 1.945590525
H -1.4821610036 -1.122282745 0.2851886988
H -2.677543113 0.0494141765 0.8485451999
H 2.1804179712 -1.3095137568 -2.2089621652
H -0.9078901606 1.7921097582 1.0483957531
H -0.9673842293 1.1658204356 -0.587920778
H 1.1703546519 0.8365334182 1.3893024177
