11
0
O 0.0773421281 0.4843966052 -2.4060506186
C -1.0275386771 0.5707516017 1.2999081034
C -0.1218990939 -0.2108940525 0.7593014636
C 1.1846866604 -0.6709708003 0.40732956
O -0.0662645912 -1.3172441979 -0.0117400846
H -0.2236137685 -0.3365110118 -2.0043134892
H -0.7197199722 1.4231529037 1.8867428602
H -2.0813779902 0.3615176288 1.1767298392
H -0.4003297376 1.1700963676 -1.935603539
H 1.7646529293 -1.2542416607 1.1136780838
H 1.7202611129 -0.1885433838 -0.4033081788
