17
0
C -2.4403691082 -0.0089347958 -0.0249832648
C -1.4462687702 1.1027820042 -0.3315756978
C -0.0173589426 0.6634447518 -0.0334093427
C 0.5508494273 -0.3034454163 -0.9717868501
C 1.7101400144 -1.086054368 -0.4626468868
C 2.4711885781 -0.5840734327 0.7389788392
O 2.1550972401 -0.7914137341 1.8794512131
H -2.3916824025 -0.303825884 1.0266812628
H -2.2223820449 -0.891152149 -0.6324940162
H -3.4648288302 0.2997997259 -0.2381722068
H -1.6863177757 1.992385682 0.2574805062
H 0.6880386443 1.4923538317 -0.2750097751
H 0.1387059834 0.4632678399 1.0359547356
H -1.5140289332 1.3799168528 -1.3861049139
H 2.3815234462 -1.3673376163 -1.2776882347
H 1.1630407737 -2.0026429444 -0.1771517099
H 3.3551776999 0.0488476524 0.5105553421
