11
0
O 1.1806693756 1.2908546898 -1.3367426443
C 1.1741728507 1.0199849147 -0.0641384406
C -1.4241206286 -0.1527201519 0.4719860801
N -0.21280411 -0.9407017111 0.4402332085
C 0.9996517517 -0.4594771972 0.1023932071
O 2.019845795 -1.1207200095 0.028814098
H 1.401205579 2.2225155877 -1.4543398412
H -2.0618258423 -0.4828439868 1.291828014
H -1.9881539402 -0.2169416005 -0.4621483281
H -1.1717665133 0.8934483129 0.6538957998
H -0.2560423177 -1.9327208481 0.607886847
