17
0
C 1.9834026902 -0.2878989031 1.2316729682
O 2.1523553016 -0.8737001833 -0.0406858135
C 1.569964309 -0.172877011 -1.0811073887
C -1.7725208676 0.7848812977 -0.1686462138
C -2.6636094936 -0.4054474074 -0.3266386347
C -0.4903810369 0.8327353124 -0.49876807
O 0.1650964387 -0.216754393 -1.0669896253
H 2.3223602285 0.7563000223 1.2334667117
H 2.594373479 -0.8599352554 1.9274754506
H 0.9398502638 -0.3232756779 1.557967926
H 1.8985173856 0.8789098743 -1.0759083108
H 1.89065917 -0.6671132569 -1.9965754821
H -2.1957633747 1.6945667558 0.2412182636
H -3.1098388627 -0.689999901 0.6295864258
H -3.4864874131 -0.1905562689 -1.0132703563
H -2.1137092163 -1.2614858564 -0.7149838736
H 0.1069739987 1.731365852 -0.3607579771
