12
0
N 1.9364014627 -0.2248465065 1.163885858
C 0.0044773711 1.5618388416 -0.1468568379
O 0.5810583286 2.5629036574 -0.0356118566
C -0.7870188394 0.5433156186 -0.2670777375
C -1.6554435564 -0.2526416006 -1.1173573724
N -0.8586105954 -0.870096384 -0.0421922107
H 2.8092617899 -0.0524333481 0.6840234955
H 1.4278958246 -0.9373782371 0.6531082898
H 2.1563118839 -0.5905751914 2.0800875703
H -1.3322286182 -0.5108016419 -2.119393245
H -2.7288180819 -0.1661618534 -0.9784640058
H -1.4521629694 -1.0507003546 0.7629110522
