13
0
O 0.3879987303 -1.0664066442 2.8433469944
C 1.1108691775 -0.8438686942 1.7077776009
C -1.60854753 -0.7321191691 -1.8541246539
C -0.8212006478 0.2328813037 -1.4914519329
C -0.0285400333 1.2015374944 -1.11855305
C 0.98178292 0.1651511498 0.8939758919
C 0.857303555 1.1653470674 0.0603661761
H -0.2554544197 -0.3599708726 2.9441873633
H 1.8436362865 -1.6241714555 1.5388352061
H -2.6271795084 -0.791096549 -1.4866491748
H -1.2698476144 -1.5078893813 -2.5317996887
H -0.0127844531 2.1084057909 -1.714812764
H 1.4501375375 2.0616939598 0.2262700314
