11
0
C -1.552547444 0.097774331 -0.2749432545
N -0.6287248946 -1.0133715052 -0.1076070122
C 0.6748526627 -0.9767422569 0.1329048783
N 1.1397720642 0.2886103238 0.2223897549
C 3.5537722371 0.7485629226 0.6716744324
N 2.4323862798 0.5130138519 0.462827989
H -1.5921059616 0.7209353883 0.6231528057
H -2.5520512711 -0.2918698878 -0.4538911748
H -1.2772194123 0.7204624491 -1.1310257748
H -1.0172517236 -1.9355659948 -0.1809281742
H 0.6102714635 1.1465673781 0.1290785304
