14
0
C -1.2981211884 -0.3018260682 0.4829905615
C -0.0260781046 0.5383615407 0.7266102034
C 1.4718681547 0.9917007568 -1.1678509361
C 0.770884394 -0.7809959463 0.7435163741
C -0.2092038905 -0.8938747099 -0.4385228351
C 0.1255581092 0.573028701 -0.881017432
H -2.138115445 0.1991321672 0.0008818058
H -1.6205368926 -0.9197629955 1.3221002405
H 0.0902994264 1.4128168021 1.3633268911
H 1.4014538398 1.9951569581 -1.6290160326
H 1.8272699739 -0.720461265 0.5032981994
H 0.5598169232 -1.4375271389 1.5880142345
H -0.3112312871 -1.7240202338 -1.1349615473
H -0.7145270127 1.0863534316 -1.3619027272
