15
0
C 2.4568503309 -0.8357984438 -0.4327457828
N 1.3380279219 -0.1784102232 -0.191635053
C 1.046436342 1.1100636752 -0.0011224028
C -0.4113195216 1.2416779573 0.2319641764
C -0.807851715 -0.1973694154 0.1262517625
C -2.1935818477 -0.714222255 0.27545036
N 0.1673497896 -0.9816222657 -0.1099404696
H 3.3760669921 -0.2791390853 -0.5002875797
H 2.3879931598 -1.9015666499 -0.546906182
H -0.6976053448 1.6411281398 1.2150339866
H 1.8088057201 1.8668303577 -0.0344941781
H -0.9555547387 1.8404025445 -0.5117349643
H -2.8481224754 -0.261481856 -0.4721840487
H -2.5907208096 -0.4491247749 1.2574231076
H -2.2109798035 -1.7959007052 0.1602142678
