12
0
O 0.9447172701 0.262512394 -1.3938286067
C 0.9775695262 -0.7891324294 -0.479059942
C 0.9009980677 0.5785415145 0.0043638032
C -0.4214195536 1.0648724535 0.5266242493
N -1.5047924663 0.1061940888 0.4434440076
C -1.2976725407 -1.0510502927 0.0119409386
O -0.1380015057 -1.6101980956 -0.4334718866
H 1.8780364239 -1.3915119784 -0.4616094248
H 1.794407002 1.0678261716 0.3828925193
H -0.7243856669 1.9712778331 -0.005041556
H -0.3011175993 1.3457591288 1.5770132886
H -2.1000079573 -1.7799987881 -0.0449953906
