16
0
C -0.996510648 -0.2366371694 -1.4679359689
C -1.060527272 0.089468467 0.9748485817
O -0.6204549122 -0.656753115 1.7971254273
C -0.3044634202 0.4912306731 -0.2987358388
C 1.1777624221 0.1360717417 -0.2065336502
C -0.4807216095 1.9402760658 -0.4681688041
N -0.6295779825 3.0712289585 -0.5913559687
H -0.5492007599 0.0688490077 -2.4135094991
H -2.062727077 -0.0087071589 -1.5065172871
H -0.8692281869 -1.3132463935 -1.3484220546
H -2.0800052242 0.5153597288 1.0610948493
H 1.6718463856 -1.9380386767 2.4179473788
H 2.3332077215 -2.2827247619 2.4327360049
H 1.6492160579 0.6380662397 0.6374429774
H 1.6918395251 0.4285170313 -1.121995652
H 1.2865329804 -0.9382766383 -0.0638054957
