11
0
N 1.5097705635 -0.1705020807 0.2383638802
C 1.4101089218 0.7400651917 -0.8554625691
C 0.4957852467 -1.1078937188 -0.1275939455
C -0.7848869267 -0.769219713 0.0653789123
C -1.0987475477 0.5515154094 0.5820877049
N -0.4825686796 1.6631804605 0.4073020042
O 0.5040978895 1.6588239209 -0.6397364848
H 1.2020136108 0.2907179612 1.097597585
H 0.8112548338 -2.057392782 -0.5419376522
H -1.5884354674 -1.480499171 -0.0794011818
H -1.9607224447 0.6657965218 1.2362017468
