17
0
C -1.9511378094 -0.385500257 -0.4202260957
C -1.4566352362 1.0046322798 -0.1890289396
C -0.1984830673 1.4476515511 -0.2509369697
C 1.0048242303 0.675443355 -0.5392212774
C 1.2646854031 -0.5859663805 -0.1806997736
C 2.5460742363 -1.2279578911 -0.534771933
O 3.4140080017 -0.7153220951 -1.1965351476
H -2.097135823 -0.9079799552 0.5304710525
H -1.2572670925 -0.9745810363 -1.0202303414
H -2.9188084364 -0.3661195416 -0.9235461994
H -2.2209389521 1.7447476539 0.0307518625
H -0.0373460212 2.5132992895 -0.1180319276
H -0.512820632 0.2623713131 2.5262994343
H 1.795508779 1.1954480746 -1.0757119055
H 0.5728179533 -1.1698821142 0.4151151942
H -0.6451205687 -0.2309542881 3.0701805873
H 2.6816660351 -2.2555239577 -0.1421026205
