12
0
N 2.7928666127 1.5408294483 0.2925762137
C 2.2360608736 0.6002828444 -0.0623542077
C 1.5369876995 -0.5682366089 -0.5040679456
O -2.0843028688 -1.206811288 1.0275822449
C -1.8680499457 -0.055304211 0.7754138162
C -0.7165839178 0.4345204558 -0.069274771
C 0.2096855077 -0.6491157935 -0.5044502145
H 2.1503620179 -1.3938978163 -0.8411182344
H -2.5364095773 0.7443050408 1.1527616104
H -1.1645469296 0.9224171793 -0.9457911377
H -0.1965258243 1.2308189096 0.471545269
H -0.2481516479 -1.5717491606 -0.8424676433
