14
0
O 0.4485823619 2.6996250431 -0.4024316447
C 1.2625757458 -0.8379906832 -0.8646098438
C 0.4160277595 -1.2287941868 0.0654881778
C -0.7745831892 -1.919740276 0.5093380505
N 0.0742546261 -1.0848558622 1.4000223146
C -0.6089783648 1.8917357795 -0.4400276605
O -1.2232115325 1.52733458 0.5232952616
H 0.6242627942 2.9153512702 0.5238606414
H 1.1936970868 -1.2347662632 -1.8682881229
H 2.0558868052 -0.1363866944 -0.6394995233
H -0.758620615 -2.9798765662 0.7335128525
H -1.7323642259 -1.517229649 0.194336496
H -0.3425081334 -0.1838716067 1.6148908519
H -0.8443251188 1.6173801149 -1.4741788514
