11
0
O -0.8829716406 1.408159612 -1.2150534713
C -0.3098372418 0.5476882854 -0.3875738471
C -0.8103928705 -0.7555626975 0.147549457
C 0.2823550689 -1.2973772829 1.0564087887
C 1.2367660917 -0.3615740453 0.9808555479
N 0.8629950209 0.7616069441 0.0955029836
H -1.0296438302 -1.4378678099 -0.6816329808
H -1.7558161608 -0.604400712 0.6805513162
H -1.7512013019 1.0828792452 -1.4690872366
H 2.2127859674 -0.2710590031 1.4365543163
H 1.4093228971 1.5826964639 -0.1225718739
