14
0
N 1.240423908 0.74887307 1.8232202805
C 0.4636095006 0.5330963659 0.7313739002
O -0.0243997345 1.4492051499 0.0947050955
C 1.1530837588 -1.8493756028 0.4839831851
C 0.2561122002 -0.8876636914 0.3256014752
C -2.0452701128 0.9887190884 -1.7162463066
O -2.5887659183 -0.0598914617 -1.5037313065
H 1.349043207 1.6973017555 2.1364911173
H 1.4626429311 0.0036823626 2.4556478683
H 0.9649166792 -2.8522776069 0.1213127872
H 2.1169924374 -1.6728347038 0.9493653958
H -0.6784458271 -1.0675732886 -0.1937666166
H -1.1513908145 1.0666239367 -2.3586379215
H -2.4163192153 1.9366806263 -1.2891449537
