16
0
C 2.3381794752 0.4070293287 -0.089740736
C 1.2964473396 -0.2911889124 0.7888467961
C 0.049116614 -0.6059870084 0.0448958505
C -2.3515477314 -0.4456111699 -0.6427194047
C -1.140189245 0.0595344226 0.1070390416
C -1.0691657194 1.3130044717 0.7611733836
H 2.5506324549 -0.1615794803 -0.998396432
H 1.976696067 1.3940507574 -0.3826653928
H 3.275051847 0.5305447297 0.4549716758
H 1.7124263203 -1.2391323093 1.1479430237
H 1.0506584993 0.3429417588 1.6399234804
H 0.1274763538 -1.4308479354 -0.6669284042
H -3.2082963954 -0.5216502045 0.0297128577
H -2.6282643532 0.2418990158 -1.4447398455
H -2.183043439 -1.4346976492 -1.0743313225
H -1.8564470876 1.9663551845 0.3392784281
