15
0
C 2.1496317159 -1.2292641657 -0.4350439815
C -1.270934838 0.3430826502 0.1073722319
C -2.0445961084 -0.6359993476 -0.3021988725
C -0.5927464285 1.0118023391 1.2152714116
C -0.4695322272 1.5190138846 -0.2226077754
H 2.4641944429 -0.4051087225 0.2046025057
H 2.5849673072 -2.1568171383 -0.0664452268
H 2.4903438242 -1.047470658 -1.4533742877
H 1.0627903043 -1.3086391125 -0.4243986966
H -2.4484609802 -1.3604642152 0.3955672378
H -2.300697182 -0.7489190463 -1.3493566505
H -1.1852014633 1.5995202947 1.9067800187
H 0.2741554481 0.5323002815 1.6553933679
H -0.9807672517 2.439949335 -0.4779614651
H 0.4783744366 1.373262621 -0.7281438174
