13
0
C -1.5704975092 0.4010165669 0.3210441976
C -1.4786956543 -1.073102529 0.5541059722
O -0.8230466758 -1.8579918491 -0.4920705673
C -0.1686779337 -1.7840747214 0.6093664346
C 2.3018960783 0.728049822 -0.5777615397
H -1.8484966665 0.8952202284 1.2538960076
H -2.327035128 0.6405078153 -0.4291451402
H -0.6140497571 0.8075294499 -0.0087747107
H -2.3453084089 -1.5833549486 0.9603671969
H 2.1860657893 -0.2229182204 -0.0595257347
H 1.7085562214 0.7198107741 -1.4914021232
H 1.969826392 1.5392373047 0.0695658729
H 3.3500972525 0.8793763072 -0.8313658659
