14
0
N -0.8290931359 3.125964919 -0.2438452665
C -0.5104960765 2.0694406259 0.0713286425
C -0.0932753833 0.7240596459 0.4458779142
C 1.2671839418 0.2964964645 -0.1585614564
C 1.3072073975 -1.1686710608 -0.3271243118
C -0.0842055899 -1.5969852521 -0.0823590955
C -1.030369771 -0.3881183528 -0.0452862351
H -0.0213785786 0.6935337092 1.5372957804
H 1.3021444522 0.5820561998 -1.2280519829
H 2.1542962043 0.7465647098 0.2861306329
H 0.0718098642 -1.9918151774 0.9432280934
H -0.4111029454 -2.4589991388 -0.6639583656
H -1.3887596247 -0.157724279 -1.0511901856
H -1.9005847545 -0.5233350129 0.5957448361
