14
0
C -1.4736973722 -1.3147359967 0.8695658683
C -0.4879297844 0.8907831098 -0.4898873739
C 0.0144343824 2.0223735544 -1.1871238973
N 0.4036462711 2.9452354797 -1.7536516584
C 0.3358959285 -0.0509520974 0.0066846985
O -0.084542893 -1.1328988092 0.6702292125
C 1.8216252114 -0.0322637343 -0.1044344234
H -1.5788683073 -2.2462448497 1.4194812855
H -1.8949896835 -0.4928328298 1.4546506985
H -1.9979611112 -1.3911566841 -0.0867695679
H -1.5611419103 0.8336297005 -0.3833347454
H 2.1602488593 -0.9379776383 -0.6099347964
H 2.2611196867 -0.0280064525 0.8943578875
H 2.1699987225 0.8388602477 -0.6533981883
