21
0
C 2.6924873104 0.6246443591 -0.532797963
C 1.4700655451 -0.074110823 -0.9660786218
C -0.6812885905 -1.8322434694 0.5111076768
C -0.900658632 -0.6896220955 -0.4762778898
C -2.3083204223 -0.1144876765 -0.3489203384
C 0.2110368087 0.3743311324 -0.3458027332
C 0.2278627259 1.1176775783 0.9950816779
H 2.7429955491 0.9721845653 0.5061976362
H 3.59651532 0.07832862 -0.8021923924
H 2.6943592276 1.5241801838 -1.1714786975
H 0.3148865305 -2.2651145617 0.3901209209
H -1.4129078889 -2.6269947731 0.351652798
H -0.7856868937 -1.4959580696 1.5463939034
H -0.7841661575 -1.096426556 -1.4842513095
H -2.5175940944 0.2414089342 0.6629040971
H -2.4663953991 0.7186941482 -1.0384680836
H -3.0530106505 -0.879336261 -0.5790946516
H 0.0034866348 1.1139150082 -1.1555170253
H 0.835156415 2.0218372569 0.9491462693
H 0.6324460001 0.4874200396 1.7898813065
H -0.7761253383 1.4202524598 1.29378742
