13
0
C 2.0124579642 0.5792237879 0.0654586208
C 0.57580185 0.3698376491 0.0049916667
C 1.3843920363 -0.83260891 0.0865123012
N -1.6843372007 -1.0860039266 -0.6040984813
C -1.6827665948 0.0841639891 -0.1401709691
O -2.7763749304 0.7188892304 0.325021435
N -0.5470515987 0.9250251246 -0.0799375633
H 2.4376637429 0.9557446693 0.9884075859
H 2.5209806045 0.9020221811 -0.8355089981
H 1.4552613797 -1.4474700187 -0.8019656734
H 1.3945293353 -1.3807128086 1.0211206055
H -2.6232250776 -1.473021587 -0.5859210918
H -2.513361511 1.6179486196 0.5497505617
