19
0
C 1.1714707171 1.193639505 -1.0985732231
C 0.3803688989 -0.8623003662 1.3923941682
C -0.3270467251 -0.4167186453 0.1482835476
C -0.4899796894 -1.4183429676 -0.9710391493
C -1.1093189919 -0.6531882044 1.4046580308
C -0.1263629824 1.0139145796 -0.323755006
O -0.1482111343 1.8687651055 0.8100103575
H 1.3041517566 2.2391307823 -1.3907782604
H 1.17702993 0.599621035 -2.0132329863
H 2.0218523681 0.8964129077 -0.4816782962
H 0.978655241 -0.1320555036 1.9207663088
H 0.7613663969 -1.875721585 1.4210382919
H 0.4187147959 -1.5131939348 -1.5699236655
H -0.7214657848 -2.406063958 -0.569685151
H -1.307113797 -1.1332630446 -1.6401069714
H -1.4800017559 0.2085569984 1.9411908977
H -1.7486371506 -1.5268198444 1.4355768039
H -0.973025516 1.2655878413 -0.980913359
H 0.1032384226 2.7495442992 0.5297236617
