16
0
C 0.6069745948 1.4026368505 -0.3904138072
C 0.037911902 0.0213835721 -0.3080880886
C 1.0067197036 -0.8236333077 2.0569687433
O 0.9352937195 -0.8347265545 0.4149067835
C -0.7095231907 -0.6082986925 -1.4302163094
C -1.419836212 -0.2336887769 -0.1479159205
H -0.0826339969 2.0580902524 -0.921651081
H 0.7630713876 1.803929833 0.6118376027
H 1.5605664007 1.3944430473 -0.9199911059
H 1.7798649108 -0.0515975691 2.1764063024
H 0.0510372958 -0.3180190512 2.2733193138
H 0.764719647 -1.7626599139 0.2383767292
H -0.5575846658 -1.6640844119 -1.6229886219
H -0.87468885 -0.0165726008 -2.3208201639
H -2.0852089029 0.6191883231 -0.148752979
H -1.7171237436 -1.0396569999 0.5101996026
