8
0
O -3.4958647556 0.5895251532 0.3662888847
C -2.3466691106 0.4751785957 0.2309716554
C -1.0841921553 0.3475379606 0.079670075
C 0.1770499566 0.2308638387 -0.0633756977
C 1.4736030356 0.1174299457 -0.2110732325
O 2.1762714521 -1.0459784993 -0.3006753132
H 1.5770514738 -1.7943290794 -0.2413356633
H 2.0968671035 1.0000550847 -0.2720127085
