13
0
O 1.0503127409 1.5558882707 -0.0518048458
C 1.6687664554 0.5119415118 0.4005174381
C 1.2249210638 -0.7911175628 0.5502560742
C -0.0532210786 -1.3596217431 0.5693444654
C -1.2231395331 -0.385400194 0.6423645603
C -1.590400523 -0.059876108 -0.7705191482
O -1.1041196951 0.8796599702 -1.3653102948
H 0.1737481074 1.3559395041 -0.4901881529
H 2.7064437868 0.7410215299 0.6435646302
H 2.0544712539 -1.4763253394 0.7192521192
H -1.0188817652 0.5571368041 1.1674792957
H -2.0688214665 -0.8867403278 1.1165758614
H -2.3009203467 -0.7205223159 -1.2899520028
