11
0
N -1.6397638065 -0.1761369725 -0.3444426433
C -0.4143417909 -0.4422172844 0.2246518132
C 0.467134621 0.7687893892 0.2633059729
O 1.7316109307 0.6452103515 1.0354697237
C 1.8156751369 0.7509075005 -0.2734702486
O 2.6247071699 0.7834259955 -1.1312703439
N 0.0053240123 -1.5299120964 0.7129898419
H -2.1968955307 -0.9638425505 -0.6268861952
H -1.726323039 0.6313089547 -0.9372979572
H -0.0298363861 1.7227047668 0.4186568483
H -0.6751713174 -2.2798640543 0.6247571882
