18
0
C 1.1652614467 1.2920227876 -0.040074273
C 0.9093322377 -1.1431151519 -0.7412135158
C 1.4556979172 -1.084019649 0.6472408849
N 0.5484025839 -0.0072709406 0.2361192922
C -0.809900703 0.0782308064 0.7980555658
C -1.8721857682 -0.0562687293 -0.295768837
O -1.5566673137 0.6745198611 -1.4546682387
H 1.3643185758 1.8147494093 0.8992031488
H 0.4919932955 1.8835346027 -0.6577356531
H 2.0892612518 1.1134322263 -0.5830558253
H 0.0399459872 -1.812429926 -0.7125041474
H 2.4800882687 -0.7555443547 0.8106441195
H 1.0657205252 -1.681506242 1.4688695255
H -0.9425466857 -0.7134256672 1.5368914654
H -0.8997527286 1.0387667863 1.3094412049
H -2.0240893188 -1.1140824829 -0.5339055424
H -2.8183782748 0.3319641766 0.0866042191
H -0.8128022966 0.2312524875 -1.8824803934
