13
0
C -0.9679716399 -0.6428549462 -0.1038472753
C -0.7275847143 0.7988379292 -0.4979720501
O 0.3044503765 1.3348971712 0.2857824705
C 1.5288651039 0.6447723145 0.0511794976
C 1.5151743314 -0.8379927497 -0.0927504479
N 0.3180555485 -1.3530351629 -0.1410663585
H -1.6597932622 -1.1285613034 -0.7957417766
H 0.2535489463 -2.356510199 -0.2276053954
H -1.3904434816 -0.6975082681 0.9025575788
H -1.6209171413 1.4008422452 -0.3292088724
H -0.4725098446 0.8551085318 -1.5670893935
H 2.1883482007 0.8951544792 0.8839725729
H 2.0153305764 1.0317989583 -0.8584325501
