15
0
O -2.9556993424 -0.1669088247 -0.24640268
C -1.9517393327 -1.1453587823 -0.2293407409
C -0.5261396981 -0.7298432248 -0.173479111
C 1.868208362 0.4468618482 0.6461869651
O 2.3228890823 -0.7438892923 0.0677044155
C 0.8591387983 1.1842145909 -0.2058443237
O -0.4571218394 0.5611049784 -0.2231596984
H -2.534751465 0.6873594253 -0.3748887574
H -2.1025140959 -1.8215655169 0.6219268733
H -2.0072390461 -1.790090674 -1.1218622045
H 2.7320657172 1.1050940287 0.7701990198
H 1.4381872067 0.2823643912 1.6447676155
H 1.5193860187 -1.2741434397 -0.0698517748
H 1.1919037441 1.2425615128 -1.2428027328
H 0.6779598903 2.1886089789 0.1772441343
