11
0
O -0.9180271002 1.1811656456 0.6889386108
C -0.3002388852 0.9935651667 -0.5672737546
C -0.7861288473 -0.1149888646 0.1976028006
C -0.5736510033 -1.4052486447 0.7823830548
O -1.7816699218 -1.0305014537 0.0476208666
C 1.9281372211 0.3742304869 -0.7032948021
O 1.0688673381 1.3439352347 -0.5997124097
H -0.8167461291 1.411415264 -1.4243770328
H 0.0642378142 -2.1236012843 0.2820023852
H -0.7250708 -1.526745452 1.8494820278
H 2.8959483135 0.9211879015 -0.7175937464
