15
0
C 2.0207067864 -0.1890374242 -1.1572692849
O 1.5345075794 -1.1716271669 -0.2646955641
C -0.5164490481 0.542594403 2.0331926117
C -1.0591779402 0.3168032982 0.8545499835
C -1.7657332308 -0.504281773 -0.1038228659
N -1.3166833091 0.8881382228 -0.3841682891
H 1.2427690803 0.5312852634 -1.4308034979
H 2.3522405436 -0.7059777272 -2.0578641489
H 2.8774282904 0.3527890042 -0.7400014007
H -0.1066981462 1.5135157381 2.2813798793
H -0.4857830575 -0.2395081981 2.7794786362
H 1.1549150915 -0.7223088167 0.495691275
H -2.822443017 -0.6831275279 0.067557969
H -1.2376693592 -1.2625371378 -0.6694675179
H -2.0559142637 1.5798608421 -0.3860857853
