12
0
C -0.0067477273 1.6444524264 0.3729750847
C 0.4818823745 0.3272014865 0.9041864644
C -2.398618714 -1.2255866686 -0.6576923949
O -2.8925594142 -0.2183609523 -0.5903792846
C 0.8302096788 -0.6854143229 0.1645703323
C 1.1693477561 -1.6962587049 -0.5805217564
H 0.6442212634 2.458211602 0.7005707024
H -0.0341804084 1.6427451031 -0.7161724439
H -1.0120735391 1.8614812486 0.7416496505
H 0.5492754731 0.2131511195 1.9832793821
H 0.4385619933 -2.4418933581 -0.8731631122
H 2.1897182636 -1.8222989792 -0.9242376242
