11
0
C -2.0207529847 -0.336146198 -0.6702505502
C -0.5922895598 0.4035734732 1.0032859049
O -0.689202181 -0.1561271302 -0.1812104027
O 0.6918856074 0.5205967824 1.3193906001
C 1.7109987627 -0.0557860897 0.5808204876
N 2.7895937155 0.5629332804 0.4818587976
H -2.7306066893 0.0433388659 0.0627441174
H -2.1064142898 0.2074518308 -1.6096106323
H -2.1769988567 -1.4000972009 -0.8417415091
H 1.4711058531 -1.0471581963 0.2002700312
H 3.4702736225 0.0045875823 -0.0240628444
