13
0
C 1.8844048825 0.0365237546 0.2164964797
C 0.4038877372 -0.019049124 0.0454522738
C -0.3297145807 -1.1600252354 -0.5253694969
N -1.5964303362 -1.0029350338 -0.5786473404
C -1.8616068306 0.3136974379 -0.0270666336
C -0.5348288407 0.8846249512 0.3489959347
H 2.200385485 0.9866242476 0.6460277233
H 2.2304116084 -0.7659216994 0.8725482825
H 2.392884046 -0.0891182289 -0.7424654283
H 0.1370385719 -2.0754641788 -0.8818044438
H -2.3912844586 0.9171623402 -0.7716998567
H -2.5388981762 0.2156404878 0.8281031309
H -0.383012108 1.8604032811 0.7903453747
