15
0
O 2.0399734318 1.1381006912 -0.2625088388
C 0.961487755 0.2807833934 -0.1623200067
C 1.0388058386 -1.2331221947 -0.0482986543
C 0.1050110885 -1.4080285714 -0.981950228
C -1.4435069549 0.2686902463 1.0629177361
C -0.4518934542 0.7851757788 0.0559385563
C -0.0713011486 0.0776987211 -1.2350873874
H 2.2830988459 1.4297585936 0.6183262626
H 1.5238203543 -1.894017118 0.6593658959
H -1.3747505764 -0.8143473432 1.1704269846
H -0.4689030266 -2.2677843455 -1.3039107163
H -2.4630055312 0.5137269632 0.7576682893
H -1.2730213767 0.7171467294 2.0440877219
H -0.4851642499 1.8641971314 -0.0844275646
H -0.0835139958 0.5757073243 -2.1936620505
