10
0
N 1.5731301624 -0.498762173 0.3325470656
C 1.2158731313 0.420998091 -0.587493888
C 0.2483746742 -0.6700279798 -0.3987226218
C -1.044016365 -0.3910525425 0.26624626
C -1.625740197 0.7888049122 0.2145785935
O -2.1511411105 1.8122376395 0.1787003278
O 1.4956348655 1.479024058 -1.0551005648
H 1.6188884455 -0.2741063158 1.3185435179
H 0.2675912722 -1.5498911816 -1.0318173612
H -1.5877298788 -1.170990508 0.7838016708
