16
0
C -2.0016887092 0.1547391797 -0.683306202
C -0.9870546053 -0.2140334951 0.3495912327
C -0.5046292055 -1.5745278321 0.5505295648
O 0.3054975097 -0.6212008806 -0.1647174354
C 1.5712842695 -0.0312153943 0.825941159
C 1.9185807067 1.2451626131 0.1027430443
H -1.797782963 1.1505134845 -1.0785982581
H -2.9935468538 0.1662734249 -0.2277625883
H -2.0061205553 -0.5565183947 -1.5093740135
H -0.8487219724 0.4535756039 1.1947752084
H -0.8661585161 -2.3767272319 -0.0820539447
H -0.0747839022 -1.8316014276 1.5113343742
H 2.2946440775 -0.7970947308 0.5008327648
H 2.132002946 1.1611288956 -0.9721557819
H 2.8323349986 1.6068807459 0.5869942494
H 1.1671387746 2.0285374393 0.2479996261
