16
0
C 1.4311626655 0.704094874 0.6384820676
C 0.8448446663 -0.1384976249 -0.4855270865
N -0.4516627977 -0.8184714443 -0.2502464237
C -0.8956209966 -1.106363265 1.0891409714
C 0.1186858317 0.7006638963 -1.5363541793
O 0.4590923456 1.4767757894 -2.3723009822
C -1.2144725641 0.1499118139 -1.0460561848
H 1.7523107136 0.0776766113 1.4723334876
H 2.3012538133 1.244457155 0.263913612
H 0.7158258311 1.4379869287 1.0157274856
H 1.6054960237 -0.8138334973 -0.8891252588
H -0.1903219617 -1.7794713994 1.5795291109
H -1.8591941857 -1.6171717379 1.04623196
H -1.0156745792 -0.2117392222 1.7209524281
H -1.8863757291 -0.2737658162 -1.7957732143
H -1.7616080767 0.9015989384 -0.4562897936
