15
0
C -2.3152100202 -0.1929787611 -0.6403416512
N -1.1936582296 0.4041855509 0.3096251856
C -0.6576468071 -0.5707074483 1.2259573813
N 0.5785846198 -0.8045739634 1.0592403609
C 1.0074512993 0.0819217305 0.0329383965
C 2.4199881653 0.0524416026 -0.4170389855
C -0.0145573318 0.8153601133 -0.4082074486
H -1.798355757 -1.0477805809 -1.1002686858
H -3.0340231079 -0.6082010504 0.0829295317
H -1.6527985007 1.1788128318 0.7814295524
H -1.3302944763 -1.0648858426 1.9127853884
H 3.086673641 0.2599293931 0.4214354269
H 2.6686936374 -0.9411628512 -0.7938778333
H 2.5991498182 0.7843192807 -1.2030677258
H -0.1156229502 1.5298049951 -1.2065968938
