15
0
N 1.4789427609 0.1697958307 -1.4497922072
C 1.5124827426 0.2477131283 -0.0890052511
O 2.183909421 1.0641963828 0.4973400952
C 0.5943919563 -0.7345154673 0.6252055828
N -0.7537762665 -0.1533571779 0.7255401653
C -1.6263161488 -0.4181240859 -0.4522217169
C -1.8553860159 -1.1361814759 0.5708398447
H 2.071752468 0.7874546678 -1.9754006525
H 1.0360546775 -0.5951436579 -1.9221905741
H 0.5837809684 -1.7044547275 0.1068830143
H 0.9837563241 -0.8695965059 1.6338935379
H -1.8152014838 0.0127993841 -1.417381888
H -1.1505422069 2.9160545308 -0.3681227884
H -2.3967687725 -1.8316370839 1.1845001143
H -0.9771924242 2.3835002577 0.1268507239
