15
0
C 1.8983093451 0.3524436075 -0.1681766229
C 0.5077526256 -0.2138839011 -0.3359528241
C -0.3975594402 -0.3114583177 0.9152458629
O -0.6502288229 1.1036305206 0.8442291896
C -0.5960399013 0.9072711661 -0.5945049146
C -1.6390710113 -0.0516670025 -1.0046412577
C -1.6738104961 -0.8603043616 0.2680181656
H 2.5568738092 -0.3975638159 0.2751423822
H 1.8841551785 1.228637533 0.4800326333
H 2.3208389909 0.6385214829 -1.1326478801
H 0.5019042172 -1.08754127 -0.9914437637
H -0.0598728476 -0.6551907404 1.8918221984
H -0.3844550331 1.8082399614 -1.1621863114
H -2.571015697 -0.572133542 0.8295828504
H -1.723158917 -1.9339803204 0.0815752922
