16
0
C 2.3573180745 -0.3077650194 -0.3278482234
C 0.8872744266 0.0124274645 -0.085631102
O 0.743140561 1.1057900234 0.7724224866
C 0.1767517306 0.2664523419 -1.3916821528
C -2.5729882382 -0.2987617738 1.0896140929
O -0.4267467969 1.2833744371 -1.6068344909
H 2.8561789513 0.5391408481 -0.8014989657
H 2.4704880051 -1.1901284169 -0.9614645131
H 2.845214589 -0.5035024036 0.626111407
H 0.3999501629 -0.8748908515 0.3510106041
H -1.6798121468 0.1148493334 1.5568231116
H 0.2400509826 -0.537360879 -2.149734568
H -2.4534403132 -1.3731436748 0.9516382569
H -3.4351519676 -0.1134212009 1.7281888939
H -2.7293299628 0.1787747913 0.1230315364
H 0.1776849419 1.7440179799 0.3168296266
