15
0
C -1.6624078769 0.3887690296 0.4663160498
C -0.9077959306 -0.316608173 -0.6294407848
N 0.5745016147 -0.3555874033 -0.5699260229
C -0.2683927267 -1.6391797477 -0.4255789456
C 1.3449720531 0.0949352776 0.5827199413
O 1.5360419131 1.4797124814 0.5874108766
H -2.7267251407 0.1977772952 0.3153080347
H -1.401027081 -0.0091925747 1.4458064549
H -1.5042780438 1.4696515051 0.4515657615
H -1.2178221426 0.0145190775 -1.6239051599
H 1.0168434855 -0.1400641063 -1.4538777763
H -0.1611116967 -2.1651026892 -1.3792788081
H 2.2897848881 -0.4556888453 0.578095818
H 0.7814544055 -0.1899327528 1.4656864718
H 2.3485852789 1.7023186262 0.1319090892
