14
0
C 1.3449835206 1.1908069829 0.4519601469
C 0.8584505639 -1.2296061502 -0.3623104908
O 0.785110894 -0.0621944577 0.8439793358
C -0.3855076568 -0.6031658043 0.1251839812
C -1.1750450978 0.3130439008 -0.7660336659
O -2.1363406927 1.0926420829 -0.0845382
H 0.7000544464 2.0020833585 0.7981912102
H 1.4917622146 1.2268996653 -0.6251307153
H 2.3085980857 1.2519590091 0.9530712921
H 1.0482813068 -2.1108190931 0.2646861302
H -1.0226831329 -1.064459748 0.8823929096
H -1.7333979861 -0.3390589177 -1.4416694369
H -0.5148683022 0.9192957682 -1.3926327476
H -1.6899991635 1.7502194034 0.4507942504
