19
0
C 1.7269093438 0.5309190077 -0.5160574002
C 0.8957915244 -0.3497070596 0.4119996594
C -0.4776671918 -0.6943320827 -0.1528386333
C -0.4579709149 -1.8001873906 -1.1928184127
C -1.6977225164 -0.4998775134 0.6994900363
C -1.529779892 0.3763979805 -0.2328713528
O -0.451432821 2.7449620606 1.8107148413
H 1.2164142401 1.477171501 -0.7168089277
H 1.9021416833 0.0471819997 -1.4790234715
H 2.7017590275 0.7604088112 -0.0815974989
H 0.771096221 0.1514843505 1.3762027593
H 1.4400289216 -1.2764781947 0.6217604266
H 0.1941000932 -1.5465689516 -2.0328731644
H -0.0862625484 -2.7341294375 -0.7617658006
H -1.4573245834 -1.9827227417 -1.5894498741
H -0.9037010738 1.9343755265 1.5592795714
H -2.292792297 -0.8821327241 1.5119006631
H -1.8872398267 1.2494184618 -0.7530876421
H 0.4426136108 2.6386683965 1.481434221
