11
0
C -0.9174865088 -0.090283779 -0.0574292963
C -0.3792688836 -0.3044554566 -1.4468234288
O 0.7668967585 -0.5418712331 -1.7143716859
C 1.506780829 0.3039490064 0.7715621851
N 0.9055496989 1.3504307446 1.0778207004
C 0.1085535532 0.0577423497 1.0376323037
H -1.5807539155 0.7827269384 -0.0854963147
H -1.5754220111 -0.9441350044 0.144236208
H -1.1391088308 -0.2445018572 -2.2530775613
H 2.4894310063 -0.0295967233 0.4745827858
H -0.1878236962 -0.3333849856 2.006879104
