15
0
C 1.7932702257 -0.3671073341 -0.5172621076
O -0.2412504451 -2.1335483377 -0.086678196
C -0.4926978844 -0.951020414 0.0538367222
N 0.4465419514 0.0168766579 -0.1569049026
C 0.2374580576 1.4307976484 0.0415092365
C -1.8800539891 -0.5050326877 0.4690450154
H 2.093424051 0.1244881466 -1.4469744782
H 1.8263371768 -1.4442917684 -0.6512330598
H 2.5005082052 -0.0808385651 0.2676423365
H 0.5554318212 1.9859933096 -0.8458393559
H -0.8092818967 1.6557293283 0.2201789154
H 0.8182445565 1.7984138035 0.8946384412
H -2.339741957 0.1367368269 -0.2844897695
H -2.4837346529 -1.4003748043 0.5860179682
H -1.86297222 0.0394931902 1.4145702343
