9
0
O 1.8877865265 -0.3813156912 -0.0366380629
C 1.5358195663 0.8451956907 -0.400692017
O 0.2295806841 0.9314994856 -0.4110558065
C -0.5919136964 -0.2012488458 -0.0607724272
C -1.9875064721 0.2124643057 -0.1652405071
N -3.0938424588 0.5008819235 -0.23643647
H 2.8484888108 -0.4101651296 -0.040335085
H -0.4031667998 -1.0331813301 -0.7394668707
H -0.3796801606 -0.5249094086 0.9583942464
