14
0
O -1.9552295357 -1.0854501465 0.4459628195
C -1.2362449412 -0.2805537667 -0.0603597153
C -1.2264063583 1.2337033825 -0.1994802878
N 0.0919633503 1.1307587526 -0.8703282082
C 0.1378462912 -0.3451563812 -0.7312149189
C 1.2421808676 -0.9237908887 0.1354005486
O 1.2850027699 -0.3430269966 1.4237829885
H 0.6037749541 -0.7439965139 1.9677838837
H 1.1198319054 -2.0110512025 0.1872301665
H -1.2301264612 1.7490096229 0.7653942669
H -2.0162433415 1.6459440658 -0.8315096171
H 0.8200886125 1.5708488874 -0.3235302002
H 0.1269766528 -0.8594916151 -1.6981558277
H 2.2105602342 -0.7198852 -0.3271238983
