16
0
C 1.4721532304 -0.4535014656 1.2049615008
C 0.3699373564 0.3340689842 0.5044818264
C -0.1008725977 -0.4006554672 -0.7528685177
C -1.0273306406 0.3985944572 -1.6073064238
C -0.7932826137 0.6185104486 1.4478236798
O -1.0107341336 -0.1219237 -2.8111348588
H 2.3243499251 -0.6259617778 0.543494408
H 1.8343337255 0.0765625825 2.0882718911
H 1.102672815 -1.429729872 1.5335196672
H 0.7882236813 1.2944166745 0.181779076
H 0.7425465029 -0.7840890264 -1.3424810977
H -0.6924929101 -1.2836179008 -0.4600824693
H -1.5887054806 1.1597538318 0.9342773551
H -0.4677114416 1.2125647967 2.3044223617
H -1.2132516685 -0.3166227165 1.832313272
H -1.6250687501 0.3748631508 -3.361152671
