15
0
C 0.5733381877 1.8704599413 0.7363438395
C 1.2257082658 -0.973033374 -0.8797184862
C 0.4409687357 -1.5243075974 0.243442921
O -0.4720800142 -0.7712971453 1.0124916115
C -1.2428240255 0.1868133927 0.3416157395
C -0.5882607708 1.5305070914 0.2026385216
C 0.2682558446 -1.7879477912 -1.2008487049
H 1.1447894626 1.1634083096 1.3260094245
H 0.9809987112 2.86583092 0.6110324482
H 2.0241721694 -0.3244026676 -1.1972844499
H 0.8564057069 -2.2685218557 0.9170046522
H -2.1658444752 0.2974271727 0.9192219696
H -1.5435649715 -0.1728722083 -0.6524794536
H -1.1556438697 2.2579495021 -0.3735866855
H -0.2756279569 -2.2943026903 -1.9808863475
