18
0
C 2.7292629043 0.5056653694 0.2714336485
O 1.4722934966 0.6667729511 -0.0477625416
C 0.4879403931 -0.1398239225 0.1516672705
C -0.8728654864 0.2931638484 -0.2828266417
C -1.5891132485 1.0937465796 0.813776889
C -1.7047608662 -0.9172499938 -0.7041820263
H 2.5022505488 -1.2523543364 -1.1189270877
H 2.9897614472 -0.2480597608 1.0019494901
H 3.3638425559 1.3354824833 0.0124762097
H 1.7893500462 -1.5211528713 -1.1896846658
H 0.6459600511 -0.9731134524 0.8315551275
H -0.7385772469 0.9473151757 -1.1501710348
H -1.005974699 1.9691606615 1.1041237953
H -2.568555687 1.4351384106 0.4697669943
H -1.7410220428 0.4783650123 1.704571896
H -1.2370691584 -1.4482030084 -1.5344454038
H -1.8165882895 -1.6205131553 0.1258495078
H -2.7064817187 -0.610638991 -1.0113324271
