8
0
N -0.7843134777 0.6686705088 0.1012982828
C -0.4570788664 -0.5965018357 0.02865683
N 0.869755014 -0.6128584142 0.0994160542
C 1.3967655331 0.6916325512 0.2202169365
N 0.3221479428 1.4735152049 0.2176126811
H -1.7089064443 1.063251083 0.0791779832
H -1.1323564901 -1.4301654211 -0.0686842846
H 1.4351537886 -1.4421616769 0.0717355169
