12
0
O -2.3549096866 0.4170294124 1.4037373393
C -1.4151032912 0.0651796691 0.7524702864
C -0.1180445494 0.6672054253 -1.3012896308
C -0.4312303138 1.0342108671 0.1262147921
N 1.9982912269 -1.2153630876 1.4364617696
C 1.9274510492 -1.7419485856 0.4231607049
O 0.2239683748 -0.4351531746 -1.6408271031
H -1.2016734136 -1.0038571039 0.5671816361
H -0.2268464939 1.4728541123 -2.051872881
H -0.8040036939 2.0529647013 0.2190535503
H 0.5020106413 0.9382123324 0.6951702095
H 1.8422701501 -2.2140475682 -0.5320596731
