12
0
N 0.6995959277 0.3197127385 0.8072893196
C 0.923340935 -0.2356988715 -0.438816348
C 0.0194467927 -0.8435455233 -1.2118404543
O -2.2908589417 0.5794332536 1.1896122971
C 2.2982237012 -0.1785413723 -0.8807411741
N 3.3919397599 -0.1086073358 -1.2228032855
H 1.3282054033 1.0548855249 1.0797673451
H -0.2715920583 0.4941060698 1.030837885
H -2.8995629621 1.1672646677 0.7403050116
H -1.0178438982 -0.8939576832 -0.9071255202
H 0.3177024046 -1.3035957161 -2.1411754351
H -2.8196010641 0.0453112479 1.7839503587
