12
0
N 0.1868808007 0.9889183003 0.6808534866
C -0.8076094962 0.2047434049 0.107769064
C -1.9670686416 0.6326108372 -0.3905813222
C -0.5219837488 -1.2608060052 0.1690478752
O -1.2158727707 -2.118417968 -0.3020222776
C 3.3398202959 -0.3736906477 -0.2288185021
O 4.3026049494 -0.7951650373 -0.6204267065
H 0.1076293152 1.9773983053 0.5103926522
H 1.1291138359 0.6528586178 0.5519008734
H -2.2175147369 1.6845392059 -0.449235875
H -2.69031328 -0.0931076488 -0.7334653529
H 0.4175944772 -1.5227863644 0.7016740849
