14
0
C 1.7297729334 -0.1957706527 0.0239932324
C 0.6585602623 0.3571293789 0.9137237403
C -0.7166495489 0.766484776 0.4125396796
C -1.3097115956 -0.1271923848 -0.6644997521
O -0.6591488771 -0.0123187031 -1.9171739845
C 1.170483928 -1.0519417132 0.808888092
H 0.1842727182 -0.4653940085 -1.8557049162
H 2.4697152407 0.0260323055 -0.7263701259
H 0.9836048785 0.9491233139 1.771227841
H -0.6770558843 1.792097122 0.0321039962
H -1.4058542531 0.7742351173 1.2646715806
H -2.3489473946 0.1545647807 -0.8422621803
H -1.3146649868 -1.1724133754 -0.3261427155
H 1.1048365796 -2.0621379564 1.1746685124
