13
0
C 1.0482519185 1.1614726243 -0.6325626534
C -0.22047098 0.8101043869 0.1330404489
C -0.7726777192 -0.5576985575 -0.2047348147
O 0.2027726984 -1.5849515284 0.1166752867
C 0.1196875284 -2.3226294596 1.1669421513
H 0.8721062195 1.151906998 -1.7106762153
H 1.4009747227 2.1566807741 -0.3599387379
H -1.006793014 1.5396075731 -0.0825573391
H -0.0410803325 0.8576081119 1.2115280104
H -1.6845230921 -0.7798091041 0.3565519202
H -0.9636174827 -0.6616386103 -1.2743372913
H -0.8266879337 -2.0240274808 1.7031080419
H 1.8464894666 0.4502592724 -0.4182548077
