15
0
C -1.4236426302 -0.0962370217 -0.2418931344
C -0.4326041243 -0.6097109634 0.8143983709
O 0.3253606288 -1.5616869534 0.1148169489
C 0.6401877246 -0.8524428173 -1.1025280092
C 1.7260480339 0.7918858249 1.0005733736
C 0.3388750071 0.782993846 0.5942088534
C -0.1183324252 0.4469422535 -0.8630138034
H -1.9719302329 -0.8690043486 -0.7813204493
H -2.088085844 0.6858460517 0.1195794114
H -0.6983328483 -0.9663203838 1.8055473361
H 0.2824862388 -1.4177860037 -1.9651274695
H 1.7345082745 1.0851702218 2.0672267676
H 1.7208730615 -0.7069140292 -1.1572637687
H -0.2893115596 1.5529069082 1.0560006234
H -0.1039173048 1.1950714152 -1.6513750509
