13
0
C 1.65491327 -0.6363141364 0.9102638793
C 0.663897713 0.2931213812 1.2475844475
C 0.1819004107 0.9842805344 -0.0497502093
C -0.2037424563 0.074268394 -1.2029435037
C -1.1167202044 -0.6239326051 -0.1772280438
N -0.7823201708 0.3936261804 0.8639292108
H 1.2429695496 -1.4185917582 0.2537107411
H 0.5737552443 -0.4951076508 -1.7057588643
H 0.8594080381 1.0348194794 2.0147383828
H 0.3910284961 2.0457985512 -0.1081317708
H -0.7721470435 0.6316386725 -1.9463989601
H -0.8634225137 -1.6461564269 0.100986854
H -2.1783423331 -0.5658086158 -0.4069241635
