10
0
N -2.2470160098 0.4126322683 0.3374064485
C -1.3360446585 -0.5102825562 0.1075889438
O -0.1433258399 0.1388018851 0.0897869907
C 0.9992739798 -0.6351625312 -0.0653435902
O 1.0614294187 -1.8155509139 0.0799378038
N 2.0243212245 0.1936574503 -0.3687837222
H -3.2087095697 0.1297022143 0.3774340785
H -2.0291806047 1.3920438826 0.4858491808
H 2.9274506736 -0.210429311 -0.5240656071
H 1.868252386 1.1687636116 -0.5346625264
