10
0
O 1.9360117154 -0.5541253811 -0.2798080519
C 0.7208838704 -0.0634379679 -0.0998179714
C -0.4862110915 -0.9344802031 0.0383340602
N -1.5541701837 0.0317014108 0.2108559068
C -0.9665629293 1.1639922073 0.1648112004
N 0.4317608534 1.1821017582 -0.0240159843
H 2.548863439 0.1887863592 -0.3433523829
H -0.4125382458 -1.6047952811 0.8984211255
H -0.6485390055 -1.555193352 -0.8464488103
H -1.4960034224 2.1046064497 0.2618999078
