10
0
O 2.0046907841 0.2935069377 -0.2193501058
C 0.7162558437 -0.0268598758 -0.2619068971
N 0.2798125786 -1.2141250836 -0.4205040221
N -1.1320397552 -1.0371326291 -0.396241567
C -1.6344670501 0.1533679519 -0.2371728273
C -0.3766866769 0.9834916486 -0.1272247322
H 2.5240679498 -0.5119657481 -0.3256987046
H -1.6643054857 -1.88451698 -0.5078892234
H -0.340193304 1.5140265342 0.8273690882
H -0.3385438843 1.7474752443 -0.9074610085
