16
0
C 1.7840264452 -0.8085437357 -0.0017481867
C 0.4333648336 -0.1761895076 -0.180267745
C -0.8070458705 -0.5601386038 0.5987283714
C -1.484738954 0.733081441 0.8866501707
C -0.6832847673 -0.9140981257 -0.8669875772
C -0.7808290692 1.7163909421 0.3230753281
N 0.4202826564 1.2684968249 -0.2280209429
H 2.2839399488 -0.3977461362 0.876903912
H 1.6911606362 -1.8885451014 0.1223645702
H 2.4198440963 -0.6278682731 -0.8727238258
H -0.7889012939 -1.3567184369 1.3322109234
H -2.3871052387 0.8479460508 1.4665557341
H -0.4893386825 -1.9512620014 -1.1086252583
H -1.3209871366 -0.3846719572 -1.5642837861
H -1.0153954721 2.7715931889 0.2909185685
H 0.7396868684 1.7049914315 -1.0777852564
