13
0
N 1.4928170951 2.6759260982 -0.0104512504
C 1.0582884413 1.6157839881 0.091349128
C 1.3246656894 -0.9877614693 -0.1747354221
C 0.1334095538 -0.5322240367 -0.9103234616
C -1.1656603006 -0.8570152996 -0.1604538711
C -0.6782723017 0.0320764446 0.9993961647
N 0.5556929766 0.3789973883 0.2287447912
H 2.2009381255 -0.5955815188 -0.7087731236
H 0.1179922465 -0.1154273371 -1.9145952882
H -2.0655397039 -0.4689934112 -0.6348340792
H -1.2772216625 -1.9131065521 0.0704048335
H -1.2839523544 0.9184238014 1.1777544458
H -0.4099278049 -0.4647310961 1.9278961331
