11
0
N 1.8916091252 -0.2988104549 -0.6786089136
C 0.6931189839 0.2005661081 -0.2522455677
C 0.1422520363 0.9926178245 0.6715062845
N -1.1864369763 0.8818700301 0.0607577043
C -1.857493176 -0.3293649762 0.3685171983
N -1.320602903 -1.102789712 -0.4981036896
N -0.537106117 0.0364885149 -0.9731303795
H 2.5855660255 -0.4297839074 0.0370872583
H 1.8084118049 -1.0888529752 -1.2983176332
H 0.4163282245 1.6251627182 1.4970118789
H -2.652095028 -0.5032081703 1.0807428594
