14
0
C -1.848678083 0.362659173 0.1516339637
C -0.1747314302 0.7074178111 -1.6520220138
C 0.8534784797 1.2399273399 -1.0020385033
C 1.9340236496 -1.6551026372 2.4035971176
C 1.0665326527 -1.4691435625 1.6026241723
C -1.3151130707 0.030464118 -1.0189797583
H -1.4831214336 1.2093821874 0.7221133547
H -2.6810171047 -0.1909127048 0.5681512108
H -0.1856056475 0.7426936233 -2.7380936958
H 0.9397314197 1.184820299 0.0778463516
H 1.6570788766 1.7348242185 -1.532646026
H 2.7062429468 -1.824489429 3.1167611324
H 0.2885011584 -1.2943446427 0.8928338845
H -1.7522634137 -0.792821794 -1.5783921907
