16
0
C 1.3296985747 -1.0178856817 0.0600418311
C 0.3304212985 0.1149727227 0.1922363134
C 0.9720501278 1.4272919758 -0.1977387684
N -1.0457521708 -0.104475067 -0.4344174017
C -1.4118936526 -1.0299353717 0.6717852147
C -0.6681076928 0.130293365 1.4282852359
O -1.5936040519 0.9832131843 0.2853848253
H 2.1342156761 -0.8226315273 0.7706409197
H 1.7724945964 -1.0374431189 -0.9388151586
H 0.937633873 -2.0065908259 0.2835818052
H 1.4282261573 1.3723398236 -1.1903277961
H 1.7654521462 1.631971974 0.5223122843
H 0.2636312037 2.2487902973 -0.1624694998
H -1.3188087235 -0.1427074387 -1.4289053295
H -2.4901924745 -1.0680784631 0.800377783
H -0.9598498875 -2.0178978484 0.6224817416
