13
0
C -1.949511449 0.4049242657 1.2936936189
C -1.7402625322 -0.5757567721 0.4309214479
C 1.4802572443 -0.3481045561 -1.3448746564
C 1.7219407171 0.5167077885 -0.197211902
O 1.6516858354 -0.8917734577 -0.0477171305
H -2.8553773067 1.0004492646 1.2744920942
H -1.2241347743 0.6454367469 2.0631484211
H 0.474733247 -0.4228839912 -1.7494887934
H -2.4708904235 -0.8202791276 -0.3323347351
H -0.8313397591 -1.1675613793 0.4563386614
H 2.2857450567 -0.5550257197 -2.0429897803
H 2.7073856426 0.947830326 -0.0483895409
H 0.8903365019 1.0671956119 0.2327822951
