15
0
O 1.1441138519 -0.7854588181 -1.5736732916
C 0.9253926278 0.7432219862 1.3423438372
C 0.1163424806 1.3335799844 0.2098599037
C -0.5229987963 -0.0944773323 0.1058240988
O -1.9014868946 -0.1920573299 0.3804331918
C -0.2050167075 -0.8560424615 -1.1807692224
C 0.3328223388 -0.4473343367 1.3014213213
H 1.6896038461 -1.040663012 -0.8252836534
H 1.7089349972 1.1579301714 1.9646089707
H -0.6094895553 2.0881731358 0.5162256354
H 0.671618097 1.6748931359 -0.6654849401
H -2.393724133 0.1066487455 -0.388321635
H -0.5374754666 -1.8948674894 -1.0540232016
H -0.7812324346 -0.4220610828 -2.0045974241
H 0.4173167489 -1.3582512964 1.8818154093
