10
0
N 1.867396269 0.2821306916 0.7363923595
C 0.9554536839 0.2924727905 -0.1047340754
N 0.6275576002 1.1047699247 -1.2710855182
N -0.4142021646 0.4538026826 -1.5272593579
O -1.8918378025 -1.2962871578 1.218124277
C -1.4222772302 -0.3661071406 0.6338269677
C -0.3112552468 -0.5068069722 -0.3867398568
H 2.5518745959 1.0153968576 0.5529607627
H -1.7634464213 0.6725957036 0.8140290099
H -0.1887062838 -1.5463073801 -0.6892005684
