13
0
C -1.0393342639 -0.8681192744 -0.1658167946
C -0.2887088781 0.4454227042 -0.2763608692
O -1.0069002669 1.5213584761 0.2987239506
C 1.0333566629 0.4365433238 0.4876203799
C 2.6674379879 -1.3025501177 -0.4997322948
N 1.9410232117 -0.5158889794 -0.0459926108
H -1.979073333 -0.8202053716 -0.7207434776
H -0.4529871945 -1.689782685 -0.5790877394
H -1.2669171711 -1.0875313968 0.8796033029
H -0.0682350998 0.6561347475 -1.3313600995
H -1.8870653874 1.545206254 -0.0802803949
H 0.8482837506 0.2029457292 1.5379716487
H 1.4875319813 1.4262515902 0.4334799987
