9
0
O -1.7649172508 -0.3280024329 -0.0630130257
C -0.4627415173 0.0837580757 0.0413606744
N 0.4298232272 -1.0426697329 0.2033340984
N 1.6006833276 -0.7890776993 -0.0636735697
N -0.1530707053 1.3016330533 0.8351764161
C -0.0568129622 1.3708948788 -0.4135952824
H -1.8703556954 -1.1162061211 0.478531966
H 2.141916469 -1.6432240775 0.1126880039
H 0.1730911071 2.096202056 -1.1816442811
