12
0
N 0.6574266887 0.3615437696 1.7834045029
C 1.1656865322 -0.2042845611 0.5813083928
C -1.6408797485 -0.9230771097 -0.5046377708
O -1.7534096654 -0.5441997166 -1.6393438768
C 1.0586060936 0.3340145612 -0.6093538368
N 0.9767769622 0.8473688774 -1.7145852294
H 1.3645231871 0.384833997 2.5052668057
H 0.3193655742 1.3029453434 1.6420009167
H 1.6141954072 -1.1865343321 0.6582076772
H -1.3881349238 -1.9714609598 -0.2629052357
H -1.8024888906 -0.2547217645 0.359634581
H 0.0926017831 0.6385268951 -2.1887549267
