15
0
O 0.1739532012 2.9357171485 0.2986683377
C 0.0001814033 2.7087245103 -0.7882708375
C -2.4207502359 0.1433407749 -0.5509772516
C -1.874314666 -0.5435924305 0.4379622199
C 1.9927618574 -1.3750591161 0.4519923319
C 1.7835334653 -0.3377546883 -0.6118352302
C 1.6413195336 -0.2143320017 0.8763690931
H -2.186776072 -0.0678953459 -1.5883044291
H -3.1262156908 0.9453400997 -0.3648764127
H -2.1072909392 -0.3308175785 1.4753176379
H -1.1662346101 -1.343320507 0.2546189279
H 2.2580603707 -2.3974510074 0.6546543675
H 0.8888162778 -0.3741936669 -1.2332932124
H 2.6455575596 0.1056667249 -1.1083918807
H 1.3980725452 0.4480970842 1.6878033383
