16
0
C -0.5438453171 -0.727360994 -0.6520058658
C 0.7777304942 -0.0827879138 -0.4189333226
C 2.1569603339 -0.5965622266 -0.6492121639
C 0.3078239678 1.135824255 0.2949456506
C -0.159185166 -0.2294249027 0.7089544261
O -3.1080382018 1.0303960189 1.0192114622
H -0.5320284348 -1.8028191485 -0.8030900023
H -2.1839421175 0.7636082346 1.0655390633
H -1.3189062987 -0.2001236734 -1.2076250487
H 2.8384679406 -0.2410901907 0.1266479625
H 2.5462458031 -0.264280252 -1.6136437848
H 2.1700938627 -1.6886230786 -0.6406616248
H 1.0309526536 1.6228498673 0.9421213695
H -0.397255182 1.8141846743 -0.1841236173
H -0.03562321 -0.7593312782 1.6390744914
H -3.5711781283 0.2467856086 0.7204360047
