17
0
C 1.6866681457 0.0656749543 -0.076925682
C 0.1752733585 -0.1103825716 0.1081735677
C -0.1019754171 -1.0627431261 1.2788756839
C -1.5974888182 0.4503774507 -1.555037393
C -0.55322572 -0.5462615438 -1.1818944805
C -1.4303873444 1.5021162437 -0.573420423
C -0.4857361245 1.2109022226 0.3433227812
H 1.9064648877 0.7515462397 -0.8976741555
H 2.1540772121 0.4586814366 0.8290319464
H 2.1524039969 -0.8955762561 -0.3037721473
H 0.3148256033 -0.6765035451 2.2119269351
H 0.3537730143 -2.0363658572 1.0869229552
H -1.1743366533 -1.2113521746 1.4203810365
H 0.1233254128 -0.6160910311 -2.0441409966
H -1.0058180026 -1.5415176055 -1.1163299055
H -2.0191401747 2.4120838992 -0.5692517529
H -0.2088913765 1.8437712641 1.1845060301
