14
0
C 1.1726177001 -0.368137662 -0.4643171301
C -0.2458555168 -0.9960677727 -0.2283788085
C -0.8488609435 0.3526505317 -0.6958436247
C -0.4236581113 -0.9344021439 1.2646019751
N -0.5499325788 0.2470765293 1.7118858602
C 0.5064657652 0.9907230415 -0.504631999
C -0.5845192191 1.1137348237 0.5590971975
H 1.5395114167 -0.6387145384 -1.4534838453
H 1.9440763711 -0.563814784 0.2847572577
H -0.4784519282 -1.9287244327 -0.7335412853
H -1.633335552 0.5359309386 -1.4167249404
H -0.3172642195 -1.7861774375 1.9311412644
H 0.9127861044 1.8841848324 -0.9588800857
H -0.9947422882 2.1031360742 0.7038991641
