16
0
C 3.0381475136 -0.4624584987 -0.324631363
O 1.6781437783 -0.9015730635 -0.4077521278
C 0.7654993266 -0.0603341131 -0.0298963228
C -1.9920798042 1.3539353561 0.2277541347
C -0.5707845437 -0.7052935187 -0.2354811888
C -1.6717317293 -0.0818984545 0.6203109238
H 3.5813065726 -1.1766572636 0.2931103737
H 3.4531126831 -0.4590208769 -1.3320168986
H 3.0633084453 0.5346182926 0.1122445262
H -2.3800709946 1.4021472292 -0.7935144808
H -2.7437880001 1.7875023129 0.8897856506
H -1.095230291 1.9734696463 0.2741090878
H -0.7942279629 -0.5383850331 -1.300636083
H -0.5092791605 -1.7924263997 -0.102096804
H -1.3640019672 -0.1163346102 1.6696650323
H -2.5723098661 -0.6976960049 0.5449995398
