16
0
C -1.2404526642 -1.1479407599 -0.195053623
C -0.8303238214 -0.0113094018 -1.1249860953
C -0.6294100991 1.3276486881 -0.4216998034
C 0.5682366505 1.4042015092 0.4901528525
C 1.4716447583 0.4759560187 0.6134025061
N 2.3730264558 -0.3608021964 0.6379402809
O 2.1926498804 -1.3573876164 1.6067921137
H -2.1740069716 -0.9114349176 0.3217918227
H -0.4826226369 -1.350614048 0.5634701178
H -1.396411922 -2.0703993226 -0.7568377033
H -1.5984041842 0.1225423578 -1.8914444022
H -0.5307157336 2.1236330533 -1.1670822481
H -1.5209199267 1.5758888011 0.1646122754
H 0.6973198898 2.3014382688 1.0875392415
H 0.0876776179 -0.2800230991 -1.6569451411
H 2.9638287071 -1.9141443349 1.4746018059
