16
0
C 0.5312133925 0.0203149693 -0.7248729373
C 0.4916306533 -0.202702031 0.7800286762
O 1.4300208517 -0.4914366177 1.4725153699
C -0.93541623 0.0773727443 -1.1499462772
C -1.6565883245 0.6507644738 0.0799412691
C -0.9365814276 0.0044670809 1.2624222655
H 1.03082931 0.9810150268 -0.8894193888
H 1.1334471896 -0.7432600313 -1.215923565
H 4.1772792635 -0.9501796106 -0.3474662324
H 3.6326852264 -0.8220639388 0.1475418419
H -1.0985874297 0.6709626456 -2.0492866929
H -1.3026383581 -0.9322628095 -1.3549824918
H -2.7285064018 0.4535929064 0.0694335071
H -1.525344997 1.7361618757 0.1119930372
H -1.3448982811 -0.9884587756 1.4796264625
H -0.9532654373 0.5709530916 2.1928141558
