17
0
O 1.1923192146 1.0527320949 0.3368265355
C 1.3935580185 -0.3497897696 0.3476120801
C 0.4785134183 -1.0166947029 -0.6647700143
C -0.9908839499 -0.7990152618 -0.2505068949
C -1.1317052928 0.3575987246 0.7428236069
C -0.1676346064 1.4829180766 0.4114412722
O 0.7461705364 -0.4998547947 -1.9581230153
H 1.0205499616 0.4160871816 -1.8522392798
H 1.2321530037 -0.7721069735 1.3474350718
H 2.4403347739 -0.5008058641 0.0813197159
H 0.7019623123 -2.0848188682 -0.7147904378
H -1.3983445572 -1.7129234779 0.1871103547
H -1.5598366844 -0.5998233274 -1.1606044753
H -0.9393998103 0.0093170103 1.761367196
H -2.1488117895 0.7545956629 0.7411055189
H -0.2158821477 2.2742069045 1.1634512775
H -0.4414794011 1.9286833849 -0.5537355121
