14
0
C 0.7128772024 -1.4439466615 1.681758786
C -0.3032823343 1.7116145788 -0.1730770212
N -1.1176166796 1.0480673696 -1.2192667017
C -0.6473355512 -0.29770342 -0.8262438608
C 0.014617568 0.3452996056 0.3887289736
N 0.5737728745 -0.0234219346 1.4433868197
H 0.3158783844 -2.0755308844 0.8777910741
H 0.2035818527 -1.7008465018 2.6125946825
H 1.7701159658 -1.6783346192 1.819972115
H -0.868737875 2.3811285453 0.4778980963
H 0.5880775599 2.2332473146 -0.5379649755
H -0.8780455297 1.3111712399 -2.1634798349
H 0.0733177302 -0.7605809071 -1.5104694245
H -1.4513881683 -1.0107067252 -0.6273937284
