13
0
O 1.0846732922 0.4445575738 -1.3251868379
C 0.3672919503 0.1332237202 -0.166089068
C -0.9124621727 -0.6154310647 -0.475807092
O -1.8670798256 0.4075846692 -0.0533207508
C -0.4161502472 1.3053162302 0.4605219762
C 1.2616179391 -0.5260168525 0.8463065758
O 2.4602828723 -0.4469499191 0.7953146531
H 2.0151322006 0.4933412878 -1.0721727831
H -1.1044717925 -1.4867762157 0.14787777
H -1.0258009795 -0.863113748 -1.530112759
H -2.1425942149 0.9415229343 -0.8044687439
H -0.5523078743 1.1248305399 1.5382234278
H 0.748494852 -1.0317101555 1.6885256317
