15
0
C -2.3717298217 0.5772311749 -0.0215373517
O -2.2049285181 -0.6923624256 0.171885302
C -1.2336369374 -1.3196436025 0.7457748591
C 0.5420731936 -0.0980879998 -1.556939846
O 1.1780256986 -0.8429549443 -2.2424083675
O 1.0516915186 0.7222429637 -0.6326317675
C 2.4684427981 0.6561146823 -0.4651996417
H -3.2943619381 0.8470304798 -0.5049076684
H -0.5494831791 0.044119404 -1.6025785569
H -1.6604408761 1.276734122 0.3973681558
H -0.4379341325 -0.7570211539 1.2149152347
H -1.3283134577 -2.3913474105 0.7640003956
H 2.76939033 -0.3454513091 -0.1569521048
H 2.9752582689 0.9072909441 -1.3967738948
H 2.7105560526 1.3815820748 0.3068042524
