12
0
N -3.1682992586 -0.3571997351 -0.7422956894
C -2.1448523572 0.1189747459 -0.5413086731
C -0.8453020581 0.7174526974 -0.2508724915
C 0.1184978149 -0.3343435211 0.2716445944
C 1.0839031191 -0.9635309424 -0.652058345
N 1.5175811249 0.1052678653 0.403872329
H -0.442351258 1.1363024818 -1.1759030518
H -1.0018684309 1.5238374178 0.4719409764
H -0.2362598871 -0.8128417724 1.1859204725
H 1.7882751884 1.0028607305 0.0330501672
H 1.426254076 -1.9160851496 -0.2373458497
H 1.9757019267 -0.1305528183 1.2724565613
