11
0
N 1.6174010622 -0.4608116244 -0.092572411
C 0.3870856027 -0.9267142494 -0.5152410426
C -0.6825706977 -1.1439385822 0.2488827182
O -1.9710475092 2.0511069165 -0.4760798168
C -1.0808923594 2.0583986958 0.2598845177
O -0.192432359 2.1004828991 1.0014843345
H 1.6274718613 0.0105018435 0.7970867594
H 2.1776055548 0.0013916535 -0.786289345
H 0.3510834564 -1.1687723284 -1.573183158
H -1.5785828622 -1.5687026554 -0.1787695376
H -0.67767475 -0.9371185687 1.313432981
