18
0
C -1.9387744298 -1.37957744 0.6276725027
C -1.156981889 -0.4924495994 1.5867529935
C 0.8436003307 0.8875627921 -1.2707128539
C 1.5859160314 1.714937484 -0.2379876209
C 1.1544552943 -0.5816587947 -1.2271941524
O 1.9052184915 -1.1018133334 -0.4478516598
H -1.7206529331 -2.4351481435 0.7984554888
H -1.6916738061 -1.1613519933 -0.4143304704
H -3.0155794095 -1.2401188838 0.7416612679
H -1.3609865856 0.565890218 1.4079398834
H -1.4201735784 -0.7045130594 2.6246102969
H -0.2440212908 0.981365771 -1.161798191
H 2.6645904135 1.6104298784 -0.3577256218
H 1.3290677968 2.7704953071 -0.3325880989
H 1.3378483772 1.390606886 0.7728133001
H 1.0545749296 1.2243859602 -2.2927934081
H 0.6272266494 -1.1947825435 -1.988930759
H -0.0816283921 -0.6491705061 1.4833041031
