14
0
C -0.9428445002 -0.7834381477 -1.1989280889
C 0.1169956419 1.1530107029 1.1000451619
N -0.1970556129 2.1011629493 1.8533892981
O 0.4852221666 -0.0556307395 1.5686517091
C 0.9724623204 -0.8429575469 0.4916118603
C 0.3621417585 -0.1710545541 -0.7367527552
O 0.145917152 1.1607256181 -0.2558343567
H -1.6401960569 -0.8791684136 -0.3641336646
H -1.4032619074 -0.1623608201 -1.9670854496
H -0.7656568507 -1.7761152412 -1.6176891618
H -0.4803498942 2.905677097 1.3066675931
H 2.0648852195 -0.8106533287 0.4841446173
H 0.6379898289 -1.8701664623 0.6319115959
H 1.0745627343 -0.1020541131 -1.5593383592
