16
0
C 2.3094526623 0.9549010737 1.0364406972
C 1.112390725 0.2456040982 0.4702797411
C 0.9445224322 -1.0434602 0.5037433625
C 0.7719322088 -2.3348693622 0.5385028717
C -2.2308245794 -0.0866764031 -0.5702881863
C -3.0384601131 0.8673783112 -0.3628539067
N -1.7798206165 1.2555418001 -1.0811658844
H 2.002918415 1.6743379415 1.7990547497
H 2.8273949301 1.5142855093 0.2539984937
H 3.0131123003 0.2537656739 1.4841493536
H 0.2741087926 -2.8115776043 1.3759404027
H 1.1319443297 -2.9720960507 -0.2616309792
H -1.8068663892 -1.0672481189 -0.4593540706
H 0.3370626796 0.8507413676 -0.0001820069
H -3.8917709067 1.354439867 0.0684155971
H -1.9827558705 1.298607097 -2.0806302352
