12
0
N 2.2388236547 -0.3786414723 -0.5061108583
C 1.3157656586 0.0503305723 0.3607985906
N 0.2047533112 -0.4543725048 0.9915786599
C -0.9861960292 -0.4990780126 0.1271628217
C -2.1602461456 0.3331633431 0.4380165206
C -1.4826174611 0.6956676279 -0.6007970504
N 0.8724101336 1.0260244402 1.0015483518
H 3.0475302703 0.1965319945 -0.664499573
H 2.353049324 -1.3716540368 -0.6048874916
H -1.0985455881 -1.509580688 -0.2688441864
H -2.9674445102 0.5128705034 1.1259959568
H -1.3294386183 1.3926472331 -1.4054097417
