11
0
O -0.7229058119 1.0359544665 -0.2664108706
C -0.8307207355 -0.2516775711 0.306474852
C 0.4691522588 -0.5639589392 0.9876543763
C 1.406129126 0.3392733334 1.1397579021
O 2.2501110161 1.1162376544 1.2821920843
H -1.5830984065 1.3134239485 -0.5831097854
H -1.0292988915 -1.0086290743 -0.463454961
H -1.6564803956 -0.2857878032 1.0289713011
H 0.4759289079 0.0333347233 -2.3350306159
H 0.6777809545 -1.5549641986 1.3653453098
H 0.6389099775 -0.4724165398 -2.8593585926
