18
0
C 2.5368269698 -0.0206725751 0.2093900882
C 1.5505183458 -1.0578769295 -0.3390574725
C 0.1170368955 -0.6958604942 -0.1687257275
O -0.4028227405 0.0963055812 -1.0587815712
C -1.6064506008 0.5920824137 -1.08125828
C -2.5923061036 0.1214707751 -0.0986887024
H 3.5703825017 -0.341099823 0.0581573107
H 2.3806191375 0.1369201003 1.2784233459
H 2.4020820371 0.9394807297 -0.291934421
H 1.7168937522 -2.0165590177 0.1593946682
H 1.7551256911 -1.2245325174 -1.4014612091
H -0.4957701777 -1.0180154965 0.6612013426
H -0.0498699075 1.721683114 1.0749882881
H -1.8197945979 1.1598075963 -1.9719016536
H -0.4954613186 2.1085810795 0.6084346903
H -3.5680275945 0.5648481773 -0.2876793016
H -2.2940822034 0.3599967778 0.9328465066
H -2.6888810863 -0.9783264915 -0.1371709017
