13
0
C -1.5505633167 0.8130810779 -0.437410548
C -0.614701024 -0.3609350263 -0.3105360063
O 0.2497881009 -0.5346077641 -1.4715639868
C 1.4063727546 -0.3969871683 -0.7467648588
N 2.5691606143 -0.4649190347 -1.1885474295
C 0.6420710024 -0.1837197728 0.5302183641
N 0.9976606618 0.0556389565 1.7039976813
H -2.2627399697 0.643712456 -1.2453545103
H -2.1123554041 0.9412239683 0.4901929089
H -0.997812132 1.7301617468 -0.6436252087
H -1.1477682908 -1.2935236699 -0.1070915545
H 0.2003829094 0.1551612375 2.3310188243
H 3.2360970936 -0.3239400069 -0.4356066756
