8
0
N -1.0669090642 0.9438539153 0.2495667111
C 0.0604806034 -1.2489761396 -0.0065499205
O 0.1861406663 -2.3882254891 -0.0988080581
C 0.0386952174 0.1057310703 0.0506191495
C 1.3635202381 0.4025022391 0.0122522866
H -0.7442130938 1.9027253035 0.273583455
H -1.7875738301 0.8336114257 -0.4489445218
H 2.048632263 -0.4473733253 -0.0612011018
