13
0
N 1.8160370702 1.1794618712 1.3188889129
C 1.2030579061 0.4896922766 0.470343191
C 1.3639123666 -0.3417085161 -0.7387588468
C 0.0136642815 -0.0874358305 -0.0941287812
C -1.1574578568 -0.8903509843 0.3315061627
C -1.3384290128 0.3304185432 -0.5350766993
H 1.8065262703 -1.3264316584 -0.6275356482
H 1.5824957264 0.1577530726 -1.6771195461
H 1.1634746443 1.5640622159 2.0020158685
H -1.4627910147 -0.8303725893 1.3686891188
H -1.2915451673 -1.8607458125 -0.1300542248
H -1.5927028532 0.1750552742 -1.5761776091
H -1.7672453608 1.2175791372 -0.0862658984
