15
0
O -1.6022080001 1.0319503997 0.6517525444
C -1.6375557158 -0.1017726158 -0.2000836991
C -0.4228877953 -0.5010575672 -0.8842365594
C 1.0724577561 -0.5764381537 1.6094600939
C 1.6905889742 -0.0696199505 0.3395109533
O 2.8740667552 -0.0117605029 0.1631866435
C 0.7188918757 0.4286332708 -0.7644771385
H -2.4885709211 1.2240292981 0.9619875954
H -2.0987053195 -0.9700092059 0.2877971077
H -2.2646004472 0.0762546365 -1.1012362857
H 0.5370612592 -1.5043077233 1.3791433781
H 0.3387747179 0.1397095693 1.983438345
H 1.8412439612 -0.7757948124 2.352197789
H 0.4527365161 1.4498610317 -0.4562921786
H 1.3147373833 0.4412883254 -1.6751075892
