12
0
C 1.1794021462 -0.2163609523 -0.702114883
C 0.5986115926 0.33203407 0.58495056
C -1.5788363552 0.221707895 -0.0905355242
O -1.1238839833 -1.0501762689 -0.2712550564
C 0.2371277232 -1.0501161206 0.0964640793
C -0.6855339304 1.0610570792 0.4247797094
H 2.2143505786 -0.5314529984 -0.6867634902
H 0.8323341426 0.2118771012 -1.6336853872
H 1.2434300131 0.5123062159 1.4348065587
H -2.6047055369 0.3850705154 -0.3852390229
H 0.5496055703 -1.979398375 0.5512406804
H -0.8621679607 2.0950488382 0.6740137761
