14
0
C 2.6131602998 -0.883327352 -0.6334722934
C 1.4386930234 -0.4785305779 -0.2431172303
C 0.2697618964 -0.0781271009 0.1152813497
C -1.0979353444 0.3215147029 -0.0500911518
C -2.1993631776 -0.662073076 -0.2961054583
O -0.4275045125 0.239238823 1.2446841965
H 2.845980147 -1.939430964 -0.723746387
H 0.7713223459 3.3245543504 0.9185646097
H 3.4004234559 -0.1774513127 -0.877321103
H -1.2831878639 1.3494729839 -0.3543218205
H -1.9195057564 -1.6480477237 0.0731551961
H -3.1161416018 -0.3399068815 0.2004889734
H -2.3982855191 -0.7332410021 -1.3671280481
H 0.5114156072 2.6936181307 1.2199931665
