15
0
O -0.1741307488 1.3308113802 -2.3116104756
C 0.1153421142 0.9844959287 -1.0846120932
C 0.4085150744 -0.3993463852 1.4046708019
C 1.6589760543 -0.720342834 0.6169322043
O 1.7646340193 -1.6904602637 -0.0860042301
C -0.8652246587 -0.6260145474 0.5958503584
C -1.1225655167 0.4921496672 -0.418388582
H 0.6223270298 1.6812317888 -2.7252389768
H 0.4704800776 0.6250286207 1.7794694484
H 0.4196147867 -1.063583136 2.2762632025
H 2.5161339328 -0.0359875223 0.7641320451
H -1.7251341167 -0.710180777 1.2625693964
H -0.774323152 -1.5801286035 0.0730626302
H -1.9192545181 0.2342545615 -1.1250523857
H -1.4536423782 1.3916041217 0.1257946564
