10
0
O 3.2217646727 0.3478475256 0.7755652035
C 2.442231773 0.4841462303 -0.0211528518
N -0.2961426763 -0.419998081 1.2064207561
C -1.076708198 0.6437013075 0.4448020194
C -1.1820708455 -0.7964701071 0.4184936734
H 0.5822403555 -0.6526711654 -2.1348569801
H -1.7742449545 1.2383190219 1.0254711337
H -0.5372998927 1.1674826261 -0.3384317155
H 0.0697798712 -0.8305024584 -2.646436676
H -1.6174891056 -1.7169328994 0.0565304372
