15
0
C 2.8916160798 0.0843680833 -0.1790499512
C 1.6393852106 -0.1997416992 0.0458288637
C 0.4068638989 -0.4652886473 0.2794551155
C -0.7085244094 -1.431481802 0.3269831086
C -0.9204469652 0.0045604921 0.732055547
O -1.1074172116 0.192185887 2.1052076698
C -1.7291122617 0.9271587399 -0.1414394247
H 3.2219432558 0.4290582066 -1.1518875641
H 3.6372851288 -0.0254456993 0.5996466111
H -0.6126090017 0.9689872076 2.3749283773
H -0.6916393938 -2.159179965 1.1298361967
H -1.1364437261 -1.7734771567 -0.6088395221
H -2.7910862939 0.812267657 0.0831766284
H -1.4495798651 1.9678060275 0.0387127872
H -1.5625034454 0.7114706687 -1.1970644433
