10
0
O -0.638147466 -0.796911452 1.0020417298
C -1.8680888441 -0.7410949567 0.4273813752
O -2.1135796484 -0.3029519852 -0.6474815861
C 0.7902913409 0.9994211365 -0.4258247694
C 0.3788795943 -0.1669650936 0.3768856724
C 1.6465998531 -0.0945171351 0.2161631449
H -2.5893600286 -1.186023271 1.1236310631
H 0.6232132481 0.9943452803 -1.5009536003
H 0.7830042208 1.9944157284 0.0202753978
H 2.64841573 -0.4401242516 0.3884675725
