13
0
C 0.4883808473 1.4257887461 -0.1122079042
C 0.5932906701 -0.1061672075 -0.3877708274
C 0.3369723115 -1.0256672977 0.7565466212
C -0.754628637 -1.7595958805 0.9022310467
C -0.5773381613 1.2845346972 -1.1540478427
N -0.5133656535 0.0285797794 -1.3741240534
H 1.3544806853 2.0333958745 -0.3778589244
H 0.1407229613 1.6939966797 0.8862143877
H 1.5239869274 -0.3821811753 -0.8923506798
H 1.1260998246 -1.0673072525 1.5039998225
H -0.8829182435 -2.4099366739 1.7585683704
H -1.5453734745 -1.7369262606 0.1616975929
H -1.2516410577 1.9865349712 -1.6415136097
