16
0
C -2.3591282108 -0.4915318513 -0.2870873396
C -1.1809356477 0.3315850198 0.2023719839
C 0.0891889544 0.0973381486 -0.5728179763
O 0.1865500693 -0.7230594 -1.4539650955
C 1.297383364 0.9426392445 -0.2177624678
O 2.4184496568 0.5610349118 -0.9511496208
H -3.2454193766 -0.2846316695 0.3134326168
H -2.5881551032 -0.2654514454 -1.3286870622
H -2.1417669033 -1.5577026673 -0.2254002539
H -1.3994894064 1.4042097776 0.1685716699
H -0.9587246678 0.1161099111 1.2534367098
H 2.5258377883 -1.9487764022 1.2462831541
H 2.1062484788 -0.1058804467 -1.5797923151
H 1.4893593599 0.8468705593 0.8583556254
H 1.042361401 1.9953909735 -0.4041119916
H 2.6998652432 -1.4436136635 0.7252803629
