12
0
C -1.2853352906 -0.9429615639 -0.1923933613
C -0.2934269562 1.2710979377 0.5991917445
C -0.1085972282 -0.2240982799 0.46671949
C 1.2051568099 -0.3424783733 -0.2501241275
N 1.7351388432 0.7868867457 -0.490387358
N 0.7955094218 1.7182204178 0.0438196053
H -2.1921920547 -0.7759263887 0.3868608722
H -1.4535363602 -0.5655066453 -1.2018291563
H -1.1022480063 -2.0168481418 -0.2544166849
H 0.010478342 -0.6076802057 1.4897626245
H 1.7065805722 -1.252313708 -0.555013277
H 1.0505189074 2.6869162052 -0.0603973715
