13
0
C -1.8153946674 0.3419970704 0.1274721692
N -0.6183290495 -0.4659037256 0.0837898359
C -0.6822745577 -1.6007543813 -0.4521647963
C 2.4726482879 0.5609993797 0.5584026476
C 1.7665323682 1.3140004493 -0.2449324096
O 1.1726678349 2.001552187 -0.960806339
H -2.04038671 0.5839428949 1.167764505
H -1.62135267 1.2843360266 -0.3880192092
H -2.6873646644 -0.1459371394 -0.3269408644
H -1.6053934754 -2.0095339303 -0.8823104375
H 0.2130509265 -2.2180700241 -0.5013638375
H 1.9728106097 -0.2457804984 1.0693991014
H 3.5197057671 0.7779116911 0.7005476345
