13
0
C -0.2895266676 1.8315687301 0.1699798161
C -0.3223145434 -1.4691816822 -1.349083061
O 0.585354324 -1.7209921304 -0.2804614238
C 0.7278068211 -0.577682445 0.4165192761
N 1.4747220709 -0.4954796143 1.4249955893
C -0.1467739647 0.4222470185 -0.2756972708
N -0.7345385166 -0.0936153731 -1.2732603
H -0.6808963621 1.8691084004 1.1891296372
H 0.6822501819 2.3302397233 0.1721107282
H -0.9651920964 2.3671688854 -0.4925531079
H 0.1789882276 -1.6643696921 -2.3000837664
H -1.1860133308 -2.1311697565 -1.2504003814
H 1.4485118561 0.442066936 1.8115342643
