13
0
C 3.2759735826 -0.4681955955 0.5913883405
C 2.212459939 0.050329779 0.388544788
C 0.9861067505 0.631058672 0.1582284417
C -0.0923642953 1.1245198466 -0.0415068067
C -1.4059441907 1.6973754496 -0.2761219759
O -2.1380603578 -1.5949065325 0.3458383545
C -0.9818362457 -1.8695860288 0.5032912243
H 4.2231365019 -0.9202184483 0.7683636246
H -1.624678611 2.4683730285 0.463854251
H -2.1688651869 0.9194272781 -0.2030921207
H -1.4575509764 2.1455843321 -1.2692497207
H -0.3337668599 -2.1803661282 -0.3365870935
H -0.5004840501 -1.8306356525 1.4977686928
