12
0
C -1.4697991817 -0.4911317804 -0.8692681582
C -0.229322015 -0.0997335308 -0.1326430046
C -0.074754838 1.3754319294 0.2022948065
O 0.6960930613 1.7678606468 1.0283559469
C 1.8464000159 -0.6594501342 0.8528150091
O 2.8725903053 -0.4484586922 0.2724245646
N 0.6411801655 -0.9421807629 0.207883198
H -1.4940500008 -1.5670203164 -1.0214843805
H -2.3598166507 -0.1809823603 -0.3154883573
H -1.5030645708 0.0115716601 -1.8394729412
H -0.7401858925 2.0677231735 -0.3487167651
H 1.7789536014 -0.7851638327 1.9470790818
