16
0
C -0.9615515976 0.8224141418 0.4560555202
C -1.4590982549 -0.2266175061 -0.5365407095
C -0.6124755822 -1.3973667437 -0.8541803632
C 0.7084390448 -1.3585454116 -0.2308236967
C 1.3761330023 -0.0700469289 0.2934817446
C 0.4895850269 1.1643009107 0.1431950527
H -1.0385266102 0.43244492 1.4774948212
H -1.5921681139 1.7137841029 0.4154577373
H -1.5357055435 0.2137121558 -1.5489105016
H -2.4843854734 -0.5555870364 -0.3413822838
H 1.4175142968 -2.0353230764 -0.7110387244
H 0.3231467337 -1.9746918928 0.6205010821
H 2.3173506795 0.0788291357 -0.2391221618
H 1.6426725818 -0.2026051737 1.3457370741
H 0.5461097956 1.5355337723 -0.8863490074
H 0.8537830142 1.9703546305 0.7833154164
