14
0
C -2.1337538827 -0.1060531393 -0.4658130111
C -1.2901872859 0.2002190051 0.7491600598
C 0.7483023892 1.1733382596 0.1924134052
O 0.10316773 0.0483974389 0.4355125078
O 1.9905227205 0.9073813732 -0.120599308
C 2.4894107167 -0.4419281308 -0.1779179544
H -3.1929483899 -0.0399234011 -0.210524756
H -1.9254097045 0.6100709133 -1.2619887133
H -1.9315301972 -1.1115891095 -0.8376393659
H -1.4468660431 1.2195014255 1.10347483
H -1.4875244098 -0.5000293411 1.5616316282
H 3.5310324009 -0.3516959215 -0.4738820905
H 2.4130975736 -0.9211576238 0.7973126338
H 1.9347403823 -1.0250377488 -0.9118288656
