15
0
C 2.4285475683 0.0466061196 0.0193333651
C 1.0621115427 0.140522661 -0.5928983038
C -0.0680642297 -0.2676742827 -0.0034524719
O -0.1425466235 -0.7101984476 1.2792944232
N -1.302646932 -0.3611158341 -0.6233844724
C -2.4744579328 0.14721106 0.0702313682
H 3.174237355 -0.2101080495 -0.7355188853
H 2.7561901615 0.9842206585 0.4809534441
H 2.4922747109 -0.7360141818 0.7824353786
H 0.6860267871 -0.5125853532 1.7203148614
H 0.9817858892 0.5458980326 -1.5940641304
H -1.2494738097 -0.069804793 -1.5854443798
H -3.355053779 -0.0568054294 -0.5383783823
H -2.5927324596 -0.3714979903 1.0190397951
H -2.4248092483 1.22602083 0.2677963902
