13
0
N 3.6096773906 0.1219432373 0.7514561461
C 2.6065216856 0.1086848187 0.1973132474
C 1.3288097945 0.0427591052 -0.5108778073
C 0.2433285145 0.9010405562 0.0197740838
C -1.5114406786 -0.419085064 0.8465089789
C -1.0715754944 0.3968756887 -0.3998081063
H 1.0686932191 -1.0045563258 -0.7211781774
H 1.4616744907 0.5182955472 -1.5005303653
H -1.5449511406 0.2091478234 1.735391634
H -2.5065993424 -0.8207141187 0.6596614784
H -0.8389390287 -1.2556445261 1.0413157011
H -1.0800873185 -0.2655756598 -1.2781306363
H -1.7872900918 1.2078869175 -0.5393911769
