13
0
C -1.7755282117 -0.0167221871 0.1837728756
C -0.3274199686 0.0791743625 0.5645112565
N 0.6703845718 -0.4689899286 -0.420195545
C 1.7350472845 0.3282652033 0.2445064188
C 0.5368658989 1.3443165055 0.1748418433
O 0.4196625818 0.5732857539 -1.3428634314
H -2.1602539119 -1.0347966558 0.2844577588
H -1.9332625264 0.3368112907 -0.8328263617
H -2.3421725898 0.623613737 0.8611003095
H -0.1294160452 -0.304450292 1.5696775065
H 0.7275387381 -1.4098004727 -0.8381877634
H 2.5736203169 0.5062456981 -0.4234528068
H 2.0280518617 -0.0496330149 1.2258839394
