14
0
C -1.9510303806 0.5901843688 -0.4318016826
C -1.2704748974 -0.5775253946 -1.1486147527
C -0.5842821779 0.1918279113 -0.1099908401
C 0.5001553878 0.3688453829 0.6133409525
C 1.7341564091 -0.4689330662 0.4729218601
O 2.8783156348 0.3099438818 0.1627853851
H -2.7383753955 0.3583938053 0.2759524694
H -2.1055914132 1.5028993887 -0.9955943391
H 0.5352967519 1.1692590838 1.3477582169
H -1.6100701751 -1.5800631196 -0.9155837234
H -0.9807893772 -0.4302503351 -2.1828501942
H 1.5669749259 -1.2488284626 -0.2796026538
H 1.9694996553 -0.9631410196 1.4183621845
H 2.682310052 0.8184985754 -0.6267168825
