13
0
C -2.2008922266 0.0758644513 -0.7373331564
N -1.3222578845 0.1807060876 0.5471999532
C 0.0208907429 -0.3335861156 0.3747253421
O 0.3127173168 -1.4673038353 0.6063114966
O 0.7999559661 0.6249947611 -0.0940977732
C 2.1137570046 0.211019893 -0.4868638766
H -1.6203402259 0.6372668152 -1.4798797671
H -1.7864047201 -0.3591179496 1.2706072102
H -2.1268770114 -0.9874395416 -0.9966343872
H -1.3098548407 1.1588708531 0.8186086064
H 2.6426732245 -0.2206338672 0.3617437322
H 2.6104311608 1.1114585356 -0.8353729769
H 2.0435434935 -0.5237940873 -1.2879344033
