9
0
C 1.0110936694 -0.4101884701 0.2914121264
C 0.1780702636 0.8157330398 0.1197539668
O 0.4977189176 1.9388607653 0.2928598335
C -1.5913347966 -0.589893077 -0.5426435989
O -1.1819261122 0.6211944423 -0.3026443698
H 2.0006128777 -0.0923528065 0.6081531501
H 1.0589102824 -0.9714852716 -0.6401360666
H 0.5612188916 -1.0744691754 1.0278402502
H -2.6492779935 -0.4282344466 -0.8397072916
