13
0
O 1.6903794729 1.9753275474 -0.1769070056
C 0.9055542272 1.0548033051 -0.0881852975
N 1.2730710219 -0.2154014794 0.281406239
C 0.4267965762 -1.3616638748 0.0284882444
C -1.0172562303 -1.1991213756 0.1320191759
C -1.4012966491 0.2060792591 0.1123332069
N -0.4368233784 1.181911526 -0.3479376679
H 2.2691581842 -0.3486762064 0.3273194792
H 0.8015029263 -2.2359199912 0.5616424402
H 0.4101857386 -1.6761725289 -1.0471940048
H -0.7336167044 2.1353821862 -0.4701607806
H -2.370974032 0.379069037 -0.3555887639
H -1.6056311528 0.2655995958 1.2126037347
