16
0
C -0.0967389814 -1.4240115703 -0.3445068986
C -1.0163338152 -0.6100839301 0.5506896761
C -1.2288654234 0.7455648974 -0.0326208962
C -0.387113862 1.3024921637 -0.94074029
C 0.9525584756 0.8422337066 -0.9233232321
C 1.1567333364 -0.5960917838 -0.6292237449
H -0.6164927966 -1.6350421352 -1.283369897
H 0.153173338 -2.3829947931 0.1127619463
H -0.5975198951 -0.5179733477 1.5618171551
H -1.9884563265 -1.095461706 0.6751388844
H 1.3811025692 1.7025734654 2.297650065
H -2.0711198307 1.3235020496 0.3417276814
H -0.6267188539 2.2663784625 -1.3794270809
H 1.5058276032 1.8068000098 1.5681287416
H 1.876408063 -0.6493966213 0.1983581222
H 1.7268043996 -0.9874208675 -1.4817362324
