14
0
C 1.9682185565 0.3065883006 -0.7229622158
C 0.7493869797 0.183412374 0.140719885
O -1.5816862711 -0.486600935 1.748189844
C -1.6900941896 -0.7034280402 0.3644243632
C -0.5792056378 -0.0419624121 -0.4134030135
O -0.2033042236 1.2479929656 0.0538547403
H 1.6998419924 0.6299972994 -1.7293781003
H 2.6648018103 1.033940578 -0.3022285139
H 2.4820988347 -0.6546464481 -0.7888046167
H 0.9189249901 -0.1530142856 1.1610031435
H -2.6519013058 -0.3352366085 -0.0183385446
H -1.6599159329 -1.7829645668 0.1993264477
H -0.6746236766 -0.1162639859 -1.4963733921
H -1.4396439264 0.4572687647 1.8725539732
