15
0
C -1.569563977 -0.8888222551 -0.2470836111
N -0.5419549141 -0.0918529052 0.3836401419
C -0.8102147392 1.3245770344 0.2512555459
C 0.7691507032 -0.4439026799 -0.1080697984
C 1.8833872115 0.2199227932 0.6366016063
O 3.0007027957 -0.2844583382 0.1735906233
H -1.6330618338 -0.7222600118 -1.3380974659
H -2.5413779687 -0.6469334195 0.1863392273
H -1.3780224783 -1.9504040338 -0.0775899953
H -1.775670819 1.5588438214 0.7025305843
H -0.0380774453 1.8924057033 0.7692793311
H -0.8363180253 1.6506858511 -0.8050530785
H 0.9062021373 -0.1891451854 -1.1833800437
H 0.9059361399 -1.5304888 -0.0367562427
H 3.7341812132 0.1345664254 0.6342861754
