15
0
C -0.5908257209 -2.1631163611 0.9470384874
C -0.963711838 -0.888460272 0.9108831456
C 0.9944633547 2.2141081357 0.3092800858
C 1.5547363303 1.2046019292 -0.2877896749
C 2.1014724634 0.1904839495 -0.8873962051
C -1.8044214795 -0.3342703575 -0.1024869174
C -2.5090246268 0.1539965908 -0.9410178061
H 0.0502088774 -2.5284772432 1.7391148399
H -0.9137694029 -2.8698047182 0.1926173315
H 1.8247825884 -0.8230624841 -0.6201529126
H -0.6223261092 -0.1956063447 1.6727510521
H 0.0754691624 2.6417331254 -0.0743254326
H 1.4294130326 2.6485825613 1.2015662348
H 2.8357882201 0.3347112607 -1.6708330734
H -3.1343418521 0.5790192283 -1.6899131551
