13
0
O 1.9556485568 -1.1508594551 -0.0323452206
C 1.2578168417 0.0431230367 0.2226548163
C -0.2021749563 -0.0306448936 -0.2702002515
C -1.8588329749 -1.4062263944 1.2231779004
C -0.9204819871 -1.1851410407 0.3698242802
C -0.8760351674 1.2444761835 -0.0273678421
C -1.389553742 2.3045645712 0.1796455222
H 1.8609897389 -1.7372670413 0.719658902
H 1.2620155135 0.3010453116 1.2858288999
H 1.7621714075 0.8420225173 -0.3231636978
H -0.1736604198 -0.2126471356 -1.3484272772
H -0.6313327699 -2.2187767907 0.1045520017
H -1.8603470413 3.2422131311 0.3598989664
