14
0
C 1.0224281117 -0.2000448718 -0.7298103192
C 0.0176750244 -1.2401608377 -0.2715358074
C -1.2973681473 -0.580934725 0.0076011887
C -0.4585401224 -0.914451081 1.1151812365
N -0.7104615483 0.4947468511 0.802228169
C 0.5187746061 1.0050915694 0.0720272228
C -0.1883893719 2.0772436575 -0.6673977708
H 0.9618414002 -0.0175792421 -1.8034469619
H 2.0470594673 -0.4710198337 -0.4687839903
H 0.0480406355 -2.270424757 -0.6091840425
H -2.3308043052 -0.7079147292 -0.260046644
H -0.5682106919 -1.3961344941 2.070760535
H 1.2264288583 1.3297217908 0.8409344755
H -0.2506469162 2.9336277029 0.0291557087
