17
0
O -0.0534221121 -1.1823297475 1.1539602565
C 1.1238229237 -1.2446445897 0.3543152847
C 0.9314466164 -0.2340435334 -0.7931423609
C -0.5033625656 0.2889642142 -0.5906679704
C -1.1069419932 -0.8100612723 0.2817121433
O 0.2391111585 1.6911226819 1.2877667103
C -0.5367496026 1.6457343717 0.1088534392
H 0.1074724339 0.8657199197 1.7670675434
H 1.2488234512 -2.263742669 -0.0291599509
H 1.9701298981 -1.0092038981 0.999240098
H 1.038337799 -0.7216678366 -1.7621761517
H 1.6565386876 0.5771263305 -0.7384292145
H -1.0412337617 0.3789295225 -1.5372202591
H -1.4260498008 -1.6699840603 -0.3232623558
H -1.9508396339 -0.4826550464 0.8917608885
H -1.5813256976 1.9145234308 0.3224156139
H -0.1315228011 2.4131981822 -0.5555117145
