16
0
C -1.4779887431 1.1787324239 0.49629972
O -0.673262683 0.0218305733 0.4943765104
C -0.7717099771 -0.71851391 -0.7101439022
C 0.084640978 -1.9573045319 -0.5990855123
N 2.0049025981 0.7737120495 1.1321905034
C 2.7036875024 1.4711844023 0.4477720436
O 3.4647749678 2.1351842216 -0.1332242862
H -1.1900709944 1.8667758075 -0.3079001801
H -2.5355176555 0.918937873 0.375474787
H -1.3400209834 1.673349604 1.4564574872
H -0.4484687109 -0.0912281571 -1.5525777313
H -1.8229341357 -0.9841086951 -0.8818961509
H 0.0169329278 -2.54174009 -1.5176476375
H -0.2463619911 -2.5794622428 0.2331095054
H 1.1314429695 -1.6960532158 -0.4372605644
H 1.0493329304 0.4601768877 0.9530134079
