19
0
C -1.1366523232 -0.4416435265 -0.5149761122
C -0.8359729865 0.8196497493 0.2409824163
C -1.861306293 1.4187817971 1.1676119941
C -0.1367631794 -0.4498302944 0.6124743474
O 1.5544865282 -2.1226516098 0.3025000648
C 1.3336058473 -0.7187953456 0.378971669
C 1.9492872265 -0.0152660187 -0.8208873718
H -0.7755665327 -0.5173191271 -1.5332007741
H 0.9372873842 -2.4787449739 -0.3417001739
H -2.0930512284 -0.9210270404 -0.3464131512
H -0.2418445467 1.5448362266 -0.3043755793
H -2.4287421242 0.6365060829 1.6770116395
H -2.5711861284 2.0422905382 0.6196839998
H -1.3885961316 2.0383417421 1.9329654867
H -0.4914050719 -0.9144546785 1.5274744387
H 1.8790250749 -0.4081364363 1.2749641539
H 1.4463788479 -0.2921483731 -1.7510524443
H 2.9945329762 -0.3115062156 -0.9075340901
H 1.9102326608 1.0704735036 -0.7177795133
