8
0
C 2.2423944946 -0.7519788462 0.2399141259
N 0.4678543365 2.6544629849 -0.1209837652
N -0.6144926298 2.6266596835 -0.2307933181
C -2.1466750928 -1.0065215823 -0.1188511173
N -3.2867676045 -1.0560395358 -0.2041572375
N 1.1086440858 -0.8333239415 0.131171909
H 3.3036293213 -0.6732680832 0.3421412557
H -1.0745869109 -0.9599906794 -0.0384418523
