17
0
C -1.2894535808 0.5140992924 0.8647941135
C -2.25079541 1.162104708 0.2245142503
C -0.8825979315 -0.9005938014 0.5918590091
C 0.5615440053 -1.046389371 0.1359631307
C 1.0701307855 -0.1414751283 -0.9963231424
C 2.0613533904 0.3720354831 0.0519982525
O 1.4962242927 -0.4705348367 1.067901839
H -0.7319348224 1.0218342286 1.6473162735
H -1.5327115792 -1.3445933963 -0.1683641567
H -2.8283613242 0.6872643519 -0.5626515623
H -2.5009685296 2.18832626 0.4654503239
H -0.9982067202 -1.4946858201 1.5046985214
H 0.7824057723 -2.1086659658 -0.0175199248
H 1.5063129275 -0.6579351805 -1.8486954373
H 0.3471669601 0.5959275436 -1.3414906029
H 3.1114539059 0.1298869769 -0.1340535125
H 1.9769108586 1.4305756554 0.3126726249
