13
0
C -1.4505765337 -1.4639112994 -0.0704687013
N -1.1642995925 -0.1565283145 0.4807748701
C -0.0671610932 0.3704826123 0.2070918486
C 0.577120766 1.6791918547 0.5848855663
O 1.7425628066 1.3200148554 -0.1821358755
C 1.1901286887 0.0599879091 -0.5896744175
H -1.6212071675 -2.1651524799 0.7485127176
H -0.657818983 -1.8620664044 -0.7155612699
H -2.3770654674 -1.4120462665 -0.6449636066
H 0.7991720127 1.8071285047 1.6479662649
H 0.0846383839 2.5755667136 0.1976807892
H 1.7821173798 -0.7901723018 -0.2361591602
H 1.0620487995 -0.0090303833 -1.6748410255
