14
0
O 1.8668134129 1.279325061 -0.8208313683
N 1.543220681 0.8407022115 0.4880097302
C 0.3095372541 0.1507468936 0.442352782
C 0.0260794352 -1.1686409914 -0.2598066883
C -1.4796527224 -0.755905184 -0.2930155888
C -1.1008341749 0.5554045914 0.3857403337
O -0.4529790581 0.1996612886 1.6204602391
H 2.7333411367 0.8974406673 -0.976140406
H 0.2917161999 -2.0580839724 0.3112020303
H 0.4626271063 -1.2131713907 -1.2564222427
H -2.1625444791 -1.38280692 0.2797625457
H -1.8588838463 -0.620080658 -1.3050627517
H -1.5746702941 1.5268002124 0.3458569685
H 1.4190333488 1.6799241906 1.0448444164
