12
0
O -1.9082412543 -0.0109406941 1.206897957
C -1.4544543812 -0.4802771488 0.2035377024
C -0.3410077991 0.1837253901 -0.6048814228
C 0.6803490792 0.8632617992 0.3052385474
N 1.4580896844 -0.1163386496 0.9838554778
C 2.0837026154 -0.956073673 1.4921163354
O 0.2342732374 -0.7025072539 -1.522962667
H -1.8314989824 -1.4283993934 -0.229633557
H -0.8253044012 0.9685097665 -1.1961300473
H 1.3501683154 1.4868296689 -0.2864135534
H 0.1620751382 1.4785731071 1.0407733415
H 0.793991748 -1.3277959188 -1.0512471142
