16
0
C -2.1205955475 0.4093174728 -0.2245245376
C -0.9152559944 -0.4777308498 -0.5045764381
C 0.2940510233 -0.121000526 0.3228007878
C 1.5936463318 -0.8585356563 0.0745325524
C 2.4295496688 0.4016837032 0.3201695998
O 0.7959045961 1.2201753373 -0.041747331
H -1.8971576142 1.4544644807 -0.4479240301
H -2.4266743147 0.3440535283 0.8226628493
H -2.9738405201 0.117972767 -0.8380645425
H -1.1533939149 -1.5252203162 -0.2940500789
H -0.6396073692 -0.4248557865 -1.5613781947
H 0.0511380362 -0.1027368561 1.3881525026
H 1.7866350647 -1.6493725884 0.8009590547
H 1.6162630416 -1.2888256789 -0.9340495053
H 2.9138275559 0.7032177072 -0.6195439645
H 0.6912229564 1.8254302616 0.6954382758
