12
0
C -0.9033701977 0.5779431158 -0.1182770624
C 0.5065847393 1.1627004949 0.1427235794
C 1.5382894216 0.1243255614 0.3082835951
C 0.8279759407 -1.1375211528 -0.014605185
O -0.0700458745 -1.3205632312 1.0917843915
C -0.6298081799 -0.8971135706 -0.1334423141
H -1.5982906331 0.8320062731 0.6834869454
H -1.3359928317 0.9211505915 -1.0595348626
H 0.5776164351 1.9798006204 0.8609218816
H 0.9147054587 1.5878818511 -0.7964046196
H 1.3230861824 -2.0374673935 -0.3581130476
H -1.281226461 -1.6163051599 -0.6184833017
