13
0
N -1.9745484664 0.4601734995 -0.5164886681
C -0.6952129132 0.1271093403 -0.1891408216
C -0.2000274122 -1.2959923 -0.2300777698
N 1.2013287116 -1.2597623032 0.1279393355
C 1.4659316636 -0.0279872157 0.3304098691
O 2.701696809 0.3640104538 0.6846873068
C 0.3512756839 0.9020998837 0.1576982177
H -2.6694201969 -0.2636603212 -0.4965110691
H -2.3081738683 1.3781514292 -0.2851389614
H -0.7607227035 -1.9280476419 0.4676957399
H -0.3317861559 -1.7240750573 -1.229279649
H 2.7164984666 1.3171701176 0.7849872418
H 0.3772633817 1.9756241152 0.2823472281
