14
0
C -0.7947307762 -0.8334703125 1.2421386812
C -0.3059480569 -0.4276768343 -0.1302599769
C -1.6749376122 1.2492627448 -1.0041077935
O -0.5990698325 0.9802178605 -0.340497987
C 1.1900697472 -0.6762256688 -0.2834823254
O 1.609878593 -1.8114548233 -0.2373946733
N 1.9715700089 0.4111041691 -0.4522281187
H -0.3260623989 -0.2225956962 2.0156025348
H -1.8769635206 -0.7129831257 1.2977659124
H -0.5393493946 -1.877482463 1.4165946032
H -0.8260436908 -0.9786722911 -0.9150633744
H -1.6849287541 2.3628296332 -1.0135772134
H 1.5837081277 1.3349648068 -0.4831573707
H 2.9607935602 0.2739100004 -0.5579298981
