16
0
C 1.9183347119 -0.2557113412 0.1470260635
C 0.5268810671 0.0856431384 -0.359026874
C -0.5334002176 -0.9955784103 -0.1393334883
C -1.8402238706 -0.191388923 -0.164226578
C -1.6033199948 1.1967635846 0.2905540771
C -0.1305584936 1.2957892113 0.3267304434
H 1.8987752589 -0.4676323312 1.2199950181
H 2.6146143477 0.5695443399 -0.0172482946
H 2.3231919771 -1.1354015744 -0.3576954355
H 0.585588777 0.3010680527 -1.4332781791
H -0.4962795844 -1.7962961259 -0.8795407174
H -0.3999048335 -1.4551331083 0.8463845958
H -2.732433354 -0.6664625749 0.2452586325
H -2.1081335432 0.0578373587 -1.2122525949
H -0.0239860043 1.1893011612 1.4288334647
H 0.2796177562 2.2815015426 0.1005958669
