15
0
O 2.2628685182 0.9698069659 -1.7261693067
C 1.8195887975 0.1757830889 -0.796491188
C 0.1534520998 -1.08955479 1.0217497628
C -0.5456497696 -0.829604709 -0.3311070327
C -1.5120653914 0.1099783058 0.4256291236
C -0.0979056892 0.4332242029 0.9602119499
C 0.380740653 0.4127252755 -0.5265338348
H 1.5761215445 1.576866301 -2.0778968166
H -0.4379681 -1.6344049024 1.7585790498
H 1.1879796425 -1.4179250692 0.9839833704
H -0.790969447 -1.5555449539 -1.1038701011
H -2.0072934256 0.8858212965 -0.1607636193
H -2.1971598813 -0.365680909 1.128336786
H 0.1787081114 1.1848923312 1.6969747758
H -0.0624646629 1.2121605661 -1.154136919
