15
0
O 2.7616789168 -0.0201164646 0.4641701384
C 1.6672968439 -0.7348387461 -0.0784375079
C 0.4600087822 0.1736091769 0.0095558564
C -2.3273560705 1.6537583823 -0.2196177105
C -2.1369511964 0.2203891081 -0.2721319116
C -0.7938507061 -0.4637387008 -0.5336240769
O -0.7751928149 -1.4803921231 -1.1778056058
H 3.5517108924 -0.5553037604 0.3815957021
H 1.4791837694 -1.6590890167 0.4802366463
H 1.8459635091 -1.0111722454 -1.1222521683
H 0.3000342169 0.4889592053 1.0453687313
H -1.3585948052 2.1064367666 0.0687750154
H 0.6565083618 1.0919937518 -0.5534371107
H -2.9414538317 -0.3515563331 -0.7377902422
H -2.3320518678 0.1765329993 0.8353502441
