15
0
O -2.8999322279 -0.7266692495 0.330067098
C -2.0550438127 -0.1023807537 -0.2503785893
C -0.7671336777 -0.6916246115 -0.7677633432
C 0.43429749 0.1146456132 -0.3188533068
C 1.5383099438 0.3320632056 -1.2499843392
O 0.5895036266 1.3576536805 -0.9985135582
C 0.6735196702 0.1613861871 1.1670947713
H -0.1931161797 0.5790677455 1.6846579279
H -2.1856122684 0.9814474985 -0.4470469445
H -0.8163549634 -0.6730255032 -1.8609445448
H -0.6941703492 -1.7292813646 -0.4376411833
H 2.5354596433 0.5190457546 -0.8611789631
H 1.5004137156 -0.1049501047 -2.2443348458
H 1.5388999643 0.7821607187 1.3961177774
H 0.8442794255 -0.8431658162 1.5590850438
