15
0
C 2.6892952382 0.5571469024 -0.4691426101
C 1.7597832946 -0.0208201493 0.2318177571
C 0.8250267346 -0.6025571154 0.9253300896
C -0.4174253786 -1.2142688521 0.3320858781
C -1.6869567716 -0.4493443289 0.6894977167
O -2.6210698977 -1.0054279817 1.2082062779
C -1.7153247387 1.0211565518 0.3566825619
H 2.6444271175 1.6177268695 -0.6890935958
H 3.5363203511 -0.0028547619 -0.8480604079
H 0.9345614381 -0.6476699479 2.0058752303
H -0.5477438881 -2.2399678423 0.678945744
H -0.3305942445 -1.2268128864 -0.7578983424
H -2.7325495093 1.3970710569 0.4383665088
H -1.0732059726 1.5621365279 1.0555247608
H -1.3182557732 1.2046639574 -0.6436585689
