13
0
C 0.9314678224 -0.9092890187 -0.3890974212
C 1.3284766252 0.4705651207 -0.7689429399
C 0.484567706 1.3213172637 0.0929067122
N -0.5321733857 0.5679104515 0.8452186063
C -0.290614737 -0.8386051451 0.5105871333
C -1.4571807011 -0.1261510933 -0.0439599061
H 1.8180823275 -1.2987019283 0.1350585608
H 1.2108656901 1.7753366158 0.7881960886
H 0.0562822663 2.170106162 -0.4488733134
H -0.4191071808 -1.5602334997 1.3083887201
H 0.8394794544 -1.5499560218 -1.2709082283
H -2.4478423128 -0.2927254847 0.3612121659
H -1.4357935748 0.126688578 -1.1022601783
