13
0
C -2.2019558621 -0.0981889354 0.0251327913
C -0.8276400065 0.0447268625 -0.5530133026
N -0.8347614015 -0.0064354213 -2.0209280029
O 0.2326082413 -0.1183239163 -2.5445861266
C 1.4463838955 0.5198373584 0.6346979214
N 2.3571492253 -0.3964489995 1.146491338
C 0.2884374122 0.2512299196 0.0943558213
H -2.6431819626 -1.0537802728 -0.2665204508
H -2.1712029319 -0.0405958503 1.1111656286
H -2.8556873872 0.6902001903 -0.3535614978
H 3.3150982664 -0.0918898015 1.1055366188
H 2.2439744504 -1.3379221573 0.806930393
H 1.7166340609 1.5630360234 0.7730028682
