12
0
O 2.4938002717 -0.6265288643 0.6774053361
N 1.6839512147 0.5228990301 0.4679611659
C 0.5053260058 0.1296870355 0.1666417444
C -0.661463938 1.0188151934 -0.1888131996
N -1.4404548436 -0.2418456837 -0.5239990117
C -0.2815276194 -1.0256713351 0.0183840394
H 3.3310910675 -0.239688233 0.9341341579
H -0.5471657772 1.6565801324 -1.0639477368
H -1.1333439305 1.561963776 0.6279758732
H -1.630567464 -0.3177995843 -1.5235868496
H -0.1120485683 -2.0477601929 -0.2739641496
H -2.3231404184 -0.3362822739 -0.0269513695
