14
0
C 2.2871458177 -0.470095939 0.1994646576
C 1.0306348978 0.2436404936 -0.0397344366
C -0.1036516543 -0.6658642265 -0.2108926902
C -1.4842229435 -0.1268935329 0.1493976587
O -2.2675738047 -0.84584626 0.7144959108
C -1.799669751 1.295593012 -0.218000615
H 2.3390448723 -1.528102495 -0.0930602271
H 3.1749935154 0.0818351361 -0.1082697614
H 2.2963888395 -0.4426652247 1.305688787
H -1.1672552517 1.9643301333 0.3677964024
H -0.0009271476 -1.6949859183 0.1630766279
H -0.0753348 -0.7260037726 -1.3187892204
H -2.850765526 1.4970474746 -0.0242841406
H -1.5586760639 1.4884471192 -1.2652959529
