16
0
N 2.0290020216 -0.0284042744 1.751141607
C 1.1730925389 -0.0252785689 0.6311437155
O 1.0596614558 -1.2114722704 -0.177034799
C -0.0585061102 -0.7940097853 0.6073805482
C -1.3190659391 -0.408364701 -0.1266645945
C -1.1279027001 0.4484539548 -1.3612103808
O -0.8002255982 1.7718572099 -0.9628665778
H 2.9879449845 0.1506344904 1.488991856
H 1.9855616764 -0.901241562 2.2583582939
H 1.2209918267 0.8914002074 0.0539198929
H -0.2422528153 -1.4359111676 1.470473739
H -1.8245503676 -1.3309542585 -0.4289058659
H -1.9876304165 0.1093456676 0.5672095529
H -0.3354745344 0.0193400257 -1.9853547611
H -2.0586719571 0.4456408827 -1.9404482749
H -0.6642510653 2.3039471494 -1.7477409514
