16
0
C -1.017931389 -1.0597411245 -1.3169718485
C -0.8186226044 -0.155849761 -0.1251786918
C 0.5773338254 0.0342191702 0.5792383927
C 1.8281656964 -0.6742058739 0.1199159228
C -0.0444001985 1.0831701106 -0.2327015653
O 0.0793240778 2.1445638335 -0.7647434791
H -0.1940069767 -0.979393805 -2.0268768152
H -1.9308761642 -0.7876669394 -1.8484516805
H -1.101245083 -2.1039029707 -1.0091101415
H -1.6426932468 -0.1372067906 0.5824058756
H 0.4822220335 0.1519296711 1.6550816688
H 2.7135907438 -0.1636108071 0.5007294125
H 1.8494039722 -1.7050739575 0.4790868387
H 1.9063442716 -0.6922412468 -0.9677160531
H -1.5821623047 2.3764959556 2.5312024032
H -1.2819086535 2.6835925356 1.9219467608
