19
0
C 1.5893671187 1.0484998858 0.2475114105
C 0.6118737482 -0.1267993957 0.2305376693
C 1.2313068172 -1.3079934565 -0.5116670505
C -0.7288985204 0.2996215009 -0.3895074637
C -1.7567072489 -0.8440322194 -0.4948400292
C -1.4999191271 1.3877436593 0.3142182564
O -1.3153702633 1.2645242744 1.608643334
H 1.1907695711 1.9047262699 0.7936196904
H 2.533383853 0.7634912307 0.7168280921
H 1.812722253 1.3766948468 -0.7719664706
H 0.4231692589 -0.4330485233 1.2643599122
H 2.2163093675 -1.5435844814 -0.1027199665
H 1.3634304791 -1.0764653752 -1.5733568193
H 0.6221852963 -2.2098576072 -0.4384913704
H -0.5475061506 0.6677365905 -1.4056356801
H -1.4405936988 -1.5785219835 -1.2343247998
H -1.8711788693 -1.345193104 0.4691156949
H -2.7343848515 -0.4646008526 -0.7981963099
H -1.8571820329 1.9259527405 2.0500709001
