15
0
C 2.3114235141 0.6227076644 0.0381299562
N 1.0455308806 0.2530891278 0.0400417833
C 0.6687059813 -1.1763922866 0.2152952411
C -0.8262377948 -1.1710455712 0.1442684311
C -1.2217072258 0.106644533 -0.0297416125
N -2.5085178182 0.6115609235 -0.0865294359
C -0.0760151593 0.9749902785 -0.0933358091
H 1.1511565 -1.7505063211 -0.5777367112
H 2.5531553168 1.6653234752 -0.0881280906
H 3.0682911218 -0.1311244397 0.1728947209
H 1.0688426071 -1.510807986 1.1745768898
H -1.4375027387 -2.0543109233 0.2314144446
H -3.2203109265 -0.0716752721 -0.2817532359
H -2.6148241878 1.4421556657 -0.6438992487
H -0.0436930706 2.0469391319 -0.1991163231
