14
0
C -1.4968350288 0.2256906717 -0.585927718
C -0.7141442744 -0.6047993025 0.4216889989
C 0.7198796029 -0.1123233989 0.6286501091
O 0.7479692118 1.1911018471 1.1308233117
C 1.5133371606 -0.2037407138 -0.6508239589
O 2.0952403427 0.7390914146 -1.1170259226
H -1.5149668892 1.2737797308 -0.2862913189
H -2.5271605375 -0.1241374758 -0.659641477
H -1.0573339311 0.171265802 -1.5854394311
H -0.6807313185 -1.6559646945 0.1167659358
H -1.2084139475 -0.5786676566 1.3950162326
H 1.21757621 -0.798613074 1.3340417003
H 1.5377406354 -1.195532476 -1.142525036
H 1.3230617635 1.7036173259 0.5472625742
