8
0
N -0.5833609841 1.306324256 -0.2002579631
C 1.9251458467 -0.8398368649 -0.1349849194
N 0.7825809484 -0.8941247173 -0.0455864192
N -0.4671980037 -1.0258707997 0.0602097253
C -1.1444845344 0.1802686368 -0.0294814863
H -1.2750738182 2.0463280912 -0.2351960959
H 2.9848273089 -0.7969040286 -0.215538719
H -2.2191997636 0.0200714266 0.0682158777
