15
0
C 1.5618824076 0.8850598316 0.5045042507
C 0.9250386328 -0.224893058 -0.320662184
N -0.4795552213 -0.4295283405 -0.0348300223
C -0.9142113327 -1.5487677528 0.5908963656
O -2.0618004316 -1.7912666037 0.8892862392
C -1.4242689675 0.5956232206 -0.4171880953
H 1.4701610134 0.6737424496 1.5713775893
H 2.6218867981 0.9756161142 0.2614724699
H 1.0940501511 1.8510616697 0.307877094
H 1.4408594177 -1.169225484 -0.1337679856
H 1.0398318387 -0.0101552916 -1.3888874776
H -0.0890800303 -2.2513345678 0.8081458721
H -2.4282590091 0.1923443769 -0.3069312255
H -1.2598039778 0.884426591 -1.4584268589
H -1.3345742891 1.4851148448 0.2115799685
