18
0
C -1.9673132337 -0.801054362 -0.6128295713
C -1.2829464835 0.3213079088 0.1447462655
C 0.1757528236 0.0986773449 0.4376491854
C 0.9003979161 1.2459398874 1.0856849442
N 0.7196733485 -0.995610897 0.1083563727
C 2.0274706065 -1.3531814483 0.3704493145
O 2.4588214842 -1.6683714184 1.4483198244
H -1.4995642054 -0.9603468619 -1.5850310617
H -1.9037461937 -1.7400363553 -0.063070988
H -3.0201679755 -0.5652298991 -0.773324916
H -1.3698566515 1.2708711813 -0.3956241976
H -1.7773825911 0.4950954189 1.1074241325
H 0.696387126 1.2520724252 -2.7461373488
H 1.0608541157 2.0293771148 0.3398000134
H 0.293437448 1.6784449025 1.8822308839
H 1.8605641118 0.9435238506 1.4971239437
H 0.7034564117 0.5958723543 -2.3920000602
H 2.639489942 -1.4152101468 -0.5481787363
