14
0
C -0.1521939359 1.7185004797 -0.9152222766
C -0.112981583 0.4007925013 -0.2627882485
C -0.987852526 -0.8149939091 -0.3839916827
C -0.0531402519 -1.4939475567 0.6587114109
C 0.7286599246 -0.1698042556 0.6577079809
C 1.8544514531 0.4291992406 1.2444910295
H -1.1230322843 2.1923716548 -0.7462683212
H -0.047060763 1.5986831345 -1.9974988995
H 0.6470002562 2.3534993701 -0.5364471477
H -0.9973495536 -1.2670956686 -1.3787391818
H -2.02262797 -0.6575763116 -0.0702126227
H -0.534764049 -1.7557523973 1.6013761996
H 0.491636472 -2.3608027976 0.2829028691
H 2.3368958108 -0.3019814845 1.9198288907
