11
0
C -0.9645886584 -0.8699175801 0.6019717879
C -0.4625049847 0.2308835909 0.0456108884
N -0.7751034237 1.5356540243 0.3393924088
O 0.42270412 0.1906168845 -1.0100226079
C 1.4846038072 -0.6491849974 -0.9256010737
O 2.2142107499 -0.8241333671 -1.8437874709
H -1.6277788346 -0.8003999847 1.4517097965
H -0.7722865037 -1.8436957984 0.178470776
H -1.3435718435 1.6827011982 1.1541453227
H -0.0363834664 2.2053797413 0.2088054192
H 1.5796070381 -1.1110627115 0.069107753
