13
0
O -0.1429487412 1.792376641 -0.1735059387
C -0.560250146 0.8952836793 0.4984622373
C -1.8429286342 0.5592785168 1.1720640271
C -1.3398491451 -0.6036493948 1.606732236
C 1.8643703987 -0.09286361 -2.2526711372
O 1.6135765182 -1.2286804337 -1.9565992062
C 0.042579943 -0.4420765407 1.0007386281
H -1.7684849705 -1.4093225425 2.1885664679
H -2.8030562829 1.0488458877 1.2594219046
H 2.535933548 0.1427598839 -3.1005818993
H 1.4407783356 0.7635318731 -1.6987505437
H 0.8680352105 -0.3340430161 1.7068661469
H 0.3202709661 -1.1417209441 0.210189077
