11
0
C -1.6111108321 0.4510577687 0.0369396523
C -0.2822118059 -0.2418803292 -0.1296888308
O 0.7439203354 0.7850444259 -0.0909697838
C 2.0120013714 0.5157232723 -0.1942827362
O 2.1769030045 -0.8012635744 -0.3347296718
H -1.7785135883 1.1692090237 -0.7662929166
H -2.4177026877 -0.2836527552 0.0159894682
H -1.6534919753 0.9832238101 0.9876598518
H -0.2128636938 -0.7695041977 -1.0817425203
H -0.0910201608 -0.9577308513 0.6705485016
H 3.1233460325 -0.9468025928 -0.4052210144
