13
0
C 2.4309479122 0.7590277465 0.5337617149
C 1.4574730151 0.2423724244 0.0613177408
C 0.2616417151 -0.3305011451 -0.4874323498
C -1.0121854969 0.4518790724 -0.2790811124
C -1.4286841047 0.5017596609 1.1743187003
O -2.5612224672 0.3659045125 1.5431195851
C 0.2889178499 -1.4952811181 -1.1296717837
H 3.3043482979 1.2045815781 0.9483224815
H -1.8336492556 0.0361768006 -0.8614369314
H -0.8538649079 1.4888464059 -0.5976717528
H -0.6111833223 0.6856104166 1.9003151644
H 1.2133664224 -2.041698725 -1.2614016083
H -0.616854658 -1.9244866297 -1.5399438488
