21
0
C -1.9509109769 -0.3054445447 -1.0003864295
C -1.1781281603 -0.4306933111 0.3137682433
C -2.047456552 -0.0078158476 1.4992516778
C 0.0838222986 0.381976835 0.2662126218
C 1.319803246 -0.0957382399 0.3646413177
C 2.5604402501 0.736851048 0.3138340015
O 1.5250350008 -1.4410045015 0.5211624788
H -2.8748197418 -0.8882794931 -0.9712001685
H -1.3532409471 -0.6569786456 -1.8432224574
H -2.2209419697 0.7370119009 -1.1941853882
H -0.9010024176 -1.4788613034 0.4497604854
H -2.9630614718 -0.6024478708 1.5462420242
H -2.3379075994 1.0434501679 1.4115709415
H -1.51182347 -0.1281838227 2.4424252813
H -0.0224722938 1.4557460396 0.1433376181
H 1.1888296538 0.3086693168 -2.4938930445
H 1.5422219028 0.3162824764 -3.1518300179
H 3.1331255227 0.6379908067 1.2410066565
H 2.3174793754 1.7882356818 0.1736267358
H 3.2034135271 0.4236444752 -0.5150992735
H 2.465443823 -1.6204611679 0.5523216956
