13
0
C 0.474687575 -0.4804847277 0.7741506633
C -1.0181386621 -0.6194159247 0.6823402524
O -1.5909409731 0.5103159328 0.320153264
C -0.8610016546 1.6853682066 0.0443115739
N 0.347269213 1.7471458996 -0.2444393237
C 1.0702416129 0.4815018861 -0.2370382481
H 0.6403008883 -0.1145678486 1.8008915633
H 0.9251551328 -1.4714765331 0.7312339417
H -0.6735869889 -2.8212045829 -1.8223268669
H -0.9955954846 -2.5571228277 -1.2017397234
H -1.5183900853 2.5465043493 0.084618647
H 2.1195443932 0.6882860911 -0.0287730921
H 1.0255890332 0.0612210789 -1.2476536516
