10
0
O 2.3976058431 0.0596805318 -0.255742224
C 1.0477910576 0.1013677824 -0.2458897369
N 0.3624326639 -1.0414957472 -0.3857509221
N -0.8978326835 -0.7604695772 -0.3426042891
C -1.0797726421 0.6725580561 -0.1734493772
C 0.2680483949 1.2588464401 -0.0989725251
H 2.6764889827 -0.8525793433 -0.3735745868
H -1.5734345911 -1.4964314442 -0.4520026265
H -1.6605543165 0.8851662994 0.7302824919
H -1.6341217087 1.0888190023 -1.022142204
