14
0
C -1.7925070572 -0.3720219056 -0.0650574779
C -0.5004604191 0.3213257069 0.3278485988
N 0.3982267039 -0.5030488038 1.1424892971
C 1.6263580638 -0.7373881115 0.7485275023
C 1.7539185575 0.0083713417 -0.5576184215
C 0.4018949609 0.6242224507 -0.8660805751
O 0.059679907 1.2198723217 -1.848682848
H -2.3516223943 0.2677457793 -0.7480957273
H -2.4160718436 -0.5718067346 0.8079832212
H -1.5872789185 -1.3184092158 -0.5681023761
H 0.0579141518 -0.8949019295 2.0080896184
H -0.7192225112 1.2622708758 0.8438598652
H 2.0935120085 -0.6449437398 -1.3643928225
H 2.5188167905 0.7858479646 -0.4669948547
