19
0
C -1.7708845576 -1.0943054206 -0.3730861585
C -0.6770779095 -0.0543496102 -0.1490309186
C -1.2296683871 1.1939983223 0.5334059614
C 0.4418122081 -0.6389151285 0.6965086101
O 1.1061686368 -1.6919665961 -0.0397208217
C 1.7902549804 -0.022979251 0.8868784393
C 2.2046632734 0.9416407645 -0.1486858193
H -2.5707305723 -0.6887378586 -0.9959094684
H -1.3747038383 -1.9832548011 -0.8646161521
H -2.2147139947 -1.4026214047 0.57827137
H -0.268350887 0.2241198023 -1.1240556748
H -1.625036406 0.9517323971 1.5240987225
H -2.0446781986 1.6256820139 -0.0499089935
H -0.4660521029 1.9639111635 0.6599252242
H 0.0169227623 -1.0291624231 1.6283527655
H 1.6308970861 -2.200943729 0.5870211205
H 1.6311237591 1.000512919 -1.0792194695
H 3.272044508 0.8762491893 -0.361588254
H 2.0815876397 1.8966896511 0.3893565167
