19
0
C 2.3698757491 0.6977347501 0.0663362452
C 1.6223807438 1.0672302067 -1.2072445088
O 0.2864522126 -2.2072369429 -0.3217907518
C -0.0663325079 -1.9731320881 0.7981566489
C -2.7040508253 -0.0864232661 0.5854686669
C -2.3034073404 0.116466157 -0.8463314832
C -1.7475159951 0.7523780211 0.3939007728
H 3.3487285394 1.1792872455 0.1112279872
H 1.8172678679 1.0058203112 0.9581613139
H 2.5261900377 -0.3810828384 0.1256722437
H 2.1846505737 0.7670356259 -2.0930900255
H 1.4510679356 2.1440116624 -1.2735087382
H -0.9314737117 -2.4858741012 1.2588127222
H 0.4564557171 -1.2342874054 1.4341540557
H -3.3753685852 -0.5921727105 1.2567806975
H -1.7275813035 -0.6540212498 -1.3576026465
H -2.9448936326 0.7016509578 -1.5028992755
H 0.6526767152 0.5695397153 -1.2549464301
H -1.0376351904 1.4606579495 0.7835015053
