15
0
C -1.491620429 0.5763402531 1.6768397173
N -0.4789661501 -0.0456262623 2.0977572831
C 0.6327595876 0.2210960823 -1.4466329317
C 1.797622799 -0.2475357862 -0.6067628098
O 1.9469182177 0.4866080271 0.5808703309
C -0.4058614351 -0.5313633499 -1.6886127516
N -1.3147291131 -1.287856626 -1.9952367143
H -2.4551710874 0.5957552089 2.1922047664
H -1.4119297744 1.131043536 0.7417857649
H -2.1047966477 -1.2979745346 -1.3558955458
H -0.6577421935 -0.5274830021 2.9758896642
H 0.6408517352 1.2301716492 -1.841219497
H 2.7230734963 -0.113281379 -1.1709762556
H 1.6878944175 -1.320913316 -0.4093961981
H 1.1909495769 0.2800174996 1.1564731772
