9
0
O -1.6400717558 1.6251663222 0.9450904606
C -0.8859243997 0.8188912241 0.4928321664
C -0.8379218595 -0.5212409211 0.1374715473
N 0.4294852159 -0.8074177301 -0.3516228599
C 1.1777393363 0.2616111824 -0.3275048146
O 0.5369892837 1.2782659932 0.1410244082
H -1.6110706479 -1.2609171428 0.2104369303
H 0.734884211 -1.7058433244 -0.6812847897
H 2.2049236159 0.3208993966 -0.6519790484
