13
0
C -2.0598471889 0.1560625601 -0.1732200062
O -1.1312412887 0.9478748814 -0.4799127921
C 0.1812031419 0.6680524868 -0.3077306292
C 1.2431861306 1.5114485794 -0.6395144555
N 2.35925191 0.865080753 -0.3160136603
C 1.9181324812 -0.3184855876 0.1877306192
N 0.6032923354 -0.4927790738 0.216796703
H -3.0607818454 0.5171098557 -0.3666827554
H -1.2791086334 -3.145847571 1.3653602446
H -1.8187667115 -0.81273614 0.2519675559
H 1.2221890941 2.4980876355 -1.0782983158
H 2.6049082021 -1.0748855061 0.5418118313
H -0.7445326275 -2.6537058732 1.1870396604
