16
0
C -0.7286498341 0.6928321092 -0.6405672427
C -0.3272652336 -0.7497248026 -0.8769573584
O 0.7528321242 -0.7361255796 -1.798671585
C 0.1126150504 -1.1918991491 0.5230011258
N 0.5629832437 0.0258897556 1.1961649465
C 0.3119177592 1.191521055 0.3643912954
O -0.1056301041 2.2940479867 1.132065844
H -1.7180571939 0.7379348114 -0.1775590042
H -0.7451856938 1.2778531796 -1.5579938583
H -0.6581231699 1.9389882158 1.8346123835
H -1.1491153875 -1.3640766235 -1.2613298449
H 1.0668056609 -1.6335450791 -1.9216451672
H -0.7321865928 -1.6421352773 1.056125043
H 0.9021083463 -1.9467032695 0.468636955
H 1.5150722508 -0.0235034883 1.5192391569
H 1.2094547744 1.5377391559 -0.1572286893
