12
0
C -1.2606305116 0.6720850904 0.6888463431
C -0.5292363485 -0.6266326373 0.3824015985
N 0.5256089302 -0.4600974628 -0.6160760214
C 1.7780278276 -0.0770856171 -0.4281383543
O 1.9681858151 0.1455062735 0.8871671157
H -2.0457274445 0.5018412958 1.428004748
H -1.7224329624 1.0842379523 -0.2103556638
H -0.5673920713 1.4132562918 1.0868550682
H -1.224287457 -1.378005315 0.00275465
H -0.0771885666 -1.029513286 1.2881470991
H 0.2828956555 -0.6333580593 -1.5752454258
H 2.8845141333 0.4044104737 0.9871308428
