14
0
C 1.4543772052 -0.3724834897 -0.7048288961
C -1.7352260221 -1.1501061925 0.4806649108
C -1.7227085385 -0.0457130643 -0.3665185966
C -0.6104603315 -0.8206317851 1.2656755712
N -0.118084148 0.4638271051 1.1852037555
C 0.7582444583 0.7213557357 0.0452946739
C -0.7501436729 0.9884494926 0.0012324348
H 1.7916574226 0.0147614006 -1.667081677
H 2.3349939633 -0.7054384091 -0.1527755441
H 0.8042332863 -1.2300647762 -0.8776555694
H -2.3887984091 0.0985818736 -1.2135266343
H -0.0189057232 -1.5183961963 1.854271711
H 1.3438355856 1.6287474744 0.166488654
H -1.0370590759 2.0348998313 -0.0101447939
