12
0
N 2.1898115565 -0.1148471627 -0.3597263318
C 0.9445012075 0.1820726234 -0.2166067019
C 0.0128665547 1.1820613288 -0.3061864365
N -1.2923544375 0.6827158826 0.0482205071
C -1.3305635938 -0.5941864415 0.3753838901
O -2.1934593055 -1.3577422431 0.7180506089
N 0.1147696184 -1.0272853908 0.2310394771
H 2.7299803437 0.6880174136 -0.6557756477
H 0.4774705428 -1.3836007847 1.1131109801
H 0.1418746681 2.2098511004 -0.5859558806
H -2.1305532832 1.2352898141 0.0558012371
H 0.2045891282 -1.77437914 -0.4547097022
