16
0
C 2.0066358939 0.2732539461 1.0875190258
C 1.2347598825 1.5133162424 0.7140932257
C -0.5774310438 -0.5122017909 -1.7169950462
C -1.5205651818 -0.168740799 -0.5724106508
C -0.803579475 0.1151794633 0.7306788282
O -0.0444557928 1.3490947835 0.5824573354
H 1.6706659173 -0.1354247238 2.0479680113
H 3.061341977 0.523741852 1.1700273564
H 1.8940723763 -0.5125019108 0.3309125388
H 0.1200746302 0.3048300628 -1.911429582
H -1.1314749783 -0.699412519 -2.6374673378
H 0.0063036357 -1.4088956397 -1.4929632339
H -2.2147759925 -0.9951442863 -0.3936152441
H -2.1291070225 0.7013952528 -0.8312882825
H -0.1595372153 -0.7133614176 1.0199919746
H -1.5110046107 0.3118574839 1.5366560812
