17
0
C -1.9118905179 0.2477772739 0.9484029857
C -0.5253824731 0.0160093597 0.3736607675
O -0.5218074646 -1.3251016917 -0.1089993513
C 0.660433893 -1.9306448765 -0.34262732
C 1.8893657314 -1.4448337971 -0.2156413358
C -0.2182377699 0.989754022 -0.7297086758
C 0.5978390262 2.0225690789 -0.607123435
H -1.9804148551 1.2517121299 1.367862806
H -2.6677913986 0.1427036688 0.1681950934
H -2.1204237396 -0.4818703582 1.731378244
H 0.2240938691 0.1109104282 1.1687310381
H 0.4879804168 -2.9519761537 -0.664082054
H 2.7220974395 -2.0978078989 -0.4337277909
H 2.1085424575 -0.4278069541 0.0735348774
H -0.7546560301 0.8164688757 -1.6594567127
H 1.1461429308 2.2035590738 0.3124707564
H 0.7512924847 2.7270288192 -1.4148748928
