16
0
C 2.5928106027 0.7273773587 0.3694828306
C 1.243861878 0.6525135706 -0.3345545025
C 0.176505114 -0.0563065228 0.3772251413
C -2.3547029602 -1.5565720663 -0.0423073842
O -2.2576002943 -0.2600378561 0.4917841599
C -1.1457242392 0.4394891404 0.007787237
H 2.8809400317 -0.255373937 0.7425480829
H 2.5405204502 1.4050574519 1.2228239611
H 3.3697799602 1.0943807874 -0.303379565
H 1.3255508587 -0.0592362995 -1.1822260678
H 0.9638571529 1.6166269439 -0.7913263235
H -1.4679417023 -2.1523753572 0.2016370079
H -3.2346333092 -2.0229156455 0.3976398939
H -2.4758933176 -1.528555824 -1.1349226895
H -1.1731392387 1.436942644 0.4813967166
H -1.2405429867 0.6239476114 -1.0815914987
