14
0
C 1.5247538091 -0.4468457242 -0.1172959784
C 0.4553560173 -0.258480107 0.9540284307
C -0.8923748412 0.1840722854 0.3979440698
O -0.8532569492 1.4731988555 -0.2252822687
C -1.4796954484 -0.8847150125 -0.5087036968
O -1.8475586488 -0.3616744978 -1.6294628907
H 2.4578823972 -0.7928018034 0.3279269347
H 1.211386741 -1.1873378581 -0.8559933103
H 1.7585459805 0.4791294696 -0.6514876398
H 0.7836784213 0.4671406185 1.703535527
H -1.6116757581 0.2554234317 1.2238417357
H 0.0574143455 1.7155591784 -0.4036940992
H 0.2903904375 -1.2042367383 1.4727819908
H -1.6443275037 0.6072779021 -1.6269308047
