16
0
C -1.8318475884 0.3448785602 0.5741484867
C -1.5511082126 0.5993149801 -0.8730746721
C 1.4212179683 1.0768450584 -0.4456641585
C 1.2224347257 -0.1380857285 0.4482313618
C 0.2594636875 -1.1704679603 -0.126523363
C -1.1794870899 -0.6954941308 -0.2564993177
H -1.2430894818 0.9617262374 1.2475431222
H -2.8686828815 0.2494796217 0.8768070107
H 0.4782612701 1.5977031347 -0.653977804
H 1.8334891504 0.7865318105 -1.4143072819
H 2.09976781 1.7993215067 0.0111217892
H 0.8766487248 0.1748513685 1.4389279833
H 2.1855624999 -0.6280962094 0.6146371712
H 0.266292728 -2.0628433758 0.5052121827
H 0.6064811356 -1.4797922306 -1.117695842
H -1.8515104459 -1.4741976428 -0.6181876682
