12
0
O 0.9591918417 0.9638085871 2.9208354819
C -1.4124665905 -0.533245324 -1.344890959
C -0.7683287526 0.7521950334 -0.886112569
C 0.5265093838 0.0016121375 -0.5203413877
C -0.3436358982 -1.2685205155 -0.5741402854
C 1.0499660455 0.647689649 1.8014802019
N 1.2554425399 0.3281235414 0.6674666183
H -0.7673098564 1.611562326 -1.5572585511
H -1.3231640975 1.0399445354 0.0175617141
H 1.2294904694 0.0183260221 -1.351050512
H -0.7907513627 -1.4761898187 0.407582017
H 0.0362532778 -2.211340174 -0.968611769
