13
0
O -1.026352755 -0.8288006865 1.3826888113
C -1.2852314204 -0.6394959029 0.0133403732
C -0.5089097495 0.5134843985 -0.608269396
N 0.8885518287 0.1954850887 -0.9241396734
C 1.9514180653 0.2009074458 -0.1405422993
O 1.5601466457 0.4984886575 1.1207064381
H -0.1019312958 -0.6218435034 1.5528547642
H -2.3538811255 -0.4272875026 -0.0770168914
H -1.0812452021 -1.5562852058 -0.5576007678
H -0.5343130618 1.3762830577 0.0595686696
H -0.9857313833 0.8041612537 -1.5457388036
H 1.0900369992 -0.038144715 -1.8804251162
H 2.3534804546 0.5132396141 1.6576728916
