15
0
O -2.9208264012 -0.4390778281 -0.1036544286
C -1.7062838962 -0.8666856006 -0.2706602573
C -0.8122802488 0.1923108674 -0.8382568934
C 0.6065240243 0.1141716561 -0.3227329779
C 1.5664254091 -0.7485612396 -1.000337089
O 1.5842293611 0.6596643063 -1.1994619766
C 0.7766855369 0.4540067489 1.1322145286
H -3.0415365167 0.5060236115 -0.3334893769
H 0.1935864976 -0.2336364984 1.7491097053
H -1.209434383 1.216593444 -0.7068660611
H -0.8028747517 -0.0159885089 -1.9163756319
H 2.4091502393 -1.1489934255 -0.4443318381
H 1.2516749026 -1.3385839678 -1.8565129086
H 0.4292274294 1.4713887443 1.3286779308
H 1.8243207971 0.3877176905 1.4236022746
