11
0
C -1.5658756215 -0.0014055376 0.1273378181
C -0.4475310329 0.3799247031 0.9256807897
O -1.6278213305 0.5146756325 1.5283421341
N 0.7754662832 0.5394557426 1.1052752095
C 1.5575500065 -0.4650103035 -1.4454543337
O 0.5083954247 -0.7923948611 -1.9273926403
H 1.9747112175 0.5478693966 -1.5830655138
H -1.963042465 0.6817860198 -0.6135086718
H -1.8313083396 -1.0465713483 0.0262106928
H 0.9798886021 0.8996728918 2.0338333626
H 2.1697302555 -1.160971336 -0.8460588472
