12
0
O -2.3399296832 1.2740532343 -0.9910640749
C -1.229568913 1.0853895659 -0.586789152
C -0.8968518305 0.0525790714 0.4854067237
C -0.1421010541 -1.0884876747 -0.1408885853
N 1.1105866866 -1.2072192412 -0.2390214876
C 2.0022427564 -0.2372720756 0.1988404021
O 2.0854284793 0.8723926588 -0.2574666983
H -0.2870115864 0.5449342614 1.2463558412
H -1.8296633643 -0.3048148445 0.9201081864
H -0.3567338788 1.6428384302 -0.9735754839
H -0.7501632703 -1.8787005047 -0.5824208936
H 2.6990966585 -0.6161758812 0.9652072222
