14
0
O 1.6710353309 -0.975948514 1.447963226
C 1.8256373961 -0.3528979861 0.1962651476
C 0.4985662165 -0.1161812027 -0.4916026012
C 0.1416171271 -0.5435134968 -1.6595840939
C -0.5497937907 0.7013104617 0.2024162967
C -1.9940091632 0.4099568298 0.0533740013
N -1.3011720119 0.0928545691 1.2944539901
H 1.2510274208 -0.3619179556 2.0552309364
H 2.3394101819 0.6115829904 0.2901264976
H 2.4506035145 -1.0069874582 -0.40945766
H -0.2500307292 1.7291613968 0.3867543476
H -2.2857033627 -0.4047978312 -0.5979076051
H -2.7007522293 1.2273398594 0.1184501963
H -1.1013199009 -0.9007096626 1.3428033204
