15
0
C -2.3273189713 0.178316822 -0.5233029189
N -0.9696204089 -0.1158081854 -0.0902656723
C -0.4156581289 -1.4127178849 -0.0534426465
C 0.8661070604 -1.3714915874 0.4008096182
C 2.2416577303 0.7827253431 0.0833819547
C 1.0191320163 0.0889705905 0.6701013051
N -0.2130360634 0.802056246 0.292259673
H -2.4496224383 -0.1717230995 -1.5473463143
H -2.48627561 1.2501221797 -0.4604081136
H -3.0230870446 -0.354098889 0.1235142087
H -1.0530056113 -2.2203444707 -0.3880261586
H 2.2566653038 1.8417175811 0.3422369195
H 2.245040979 0.6846159459 -1.0027429262
H 3.1371707234 0.2997108586 0.4690899826
H 1.0396734636 0.1943075499 1.7677650886
