13
0
C -2.0998512865 0.720770653 -0.5854683965
N -1.4470597259 1.6564672932 -0.0439926576
C 0.9190362812 -1.8600552308 0.5329024922
O 0.0659164742 -1.8556831119 -0.3101529033
O 1.8125976795 -0.9075228943 0.7450114881
C 1.7317944894 0.2405578587 -0.1124124109
H -3.1508843554 0.8013744789 -0.8803771624
H 1.0753184179 -2.6763107608 1.2512252245
H -1.6003537292 -0.2300686031 -0.7713940293
H -2.0226811126 2.487664374 0.0800201966
H 1.8108616403 -0.0651900136 -1.15579516
H 2.5754612215 0.8676064188 0.162856082
H 0.7918630057 0.7724845379 0.0438982366
