12
0
O -1.5959219942 0.4692551809 -0.440603956
C -0.9522649718 -0.8607899317 0.40667638
C 0.5108655615 -0.599902958 0.0870167737
O 0.6487795879 -0.4585944907 -1.3188508912
C 1.0763802279 0.6341063815 0.7511901646
O 1.5153192667 1.5710494179 0.133117656
H -0.9782920423 0.392319208 -1.2062785848
H -2.4262158815 0.0780350859 -0.7295618939
H -1.1413246614 -0.5206661896 1.4370808721
H 1.0576695066 -1.4724319346 0.473242609
H 1.3082588941 0.2358780286 -1.4582167306
H 1.0229945065 0.6438782016 1.8565706012
