16
0
C 2.7917710882 0.8396945518 1.4603220106
C 2.1503630692 -0.0373241004 0.731748187
C 1.5316977168 -0.8900030683 0.0261768541
C 0.87253771 -1.757610743 -0.697527192
C -1.9488164182 0.2484603135 0.7084883149
C -1.6740762171 1.0133032152 -0.5226564412
N -2.1696635812 -0.3582644995 -0.6019332488
H 2.2879697684 1.709139608 1.8673930237
H 3.8472388352 0.7223289022 1.6786734632
H -1.122600172 -0.1721311738 1.2692631106
H 1.3705988577 -2.6297603072 -1.106578427
H -0.1875848367 -1.6197652363 -0.9006319468
H -2.8131502313 0.5268261346 1.3008790241
H -0.6495266647 1.1461824354 -0.8495578242
H -2.3489812361 1.8209895397 -0.7823566197
H -3.1551096881 -0.3715735719 -0.8306442883
