16
0
C 2.1161983199 0.3957153902 -0.0105950113
O 1.0278061098 1.0813214419 -0.0154444258
C -0.04283947 0.873982911 0.7113297238
C -0.9077829641 -1.1843269637 -1.8875949909
C -0.068042205 -0.2474246611 1.6670809046
C -1.1047248919 1.7620116472 0.4650337026
N -2.0030708698 2.46483837 0.2889837945
H 2.2346244194 -0.4483688192 0.6516551529
H 0.1489789264 -1.0506770626 -1.652033241
H 2.8718886485 0.744602462 -0.6937347654
H -0.9957484367 -1.7287844422 -2.8263312097
H -1.3884054432 -0.2120149833 -1.9817440211
H -1.3938879602 -1.7510504106 -1.0942954509
H -1.0251989151 -0.2838847277 2.1811230586
H 0.729466633 -0.147211091 2.4169005161
H 0.0915290989 -1.2062620608 1.1530212632
