11
0
O -2.5044191343 -1.2408664242 -0.06840109
C -1.7856259032 -0.2828369441 -0.0348961016
C -0.2740045388 -0.4118705464 -0.0003815145
C 0.5176170118 0.8393215218 0.062801634
N 1.5929058821 1.0422330273 -1.0072958448
C 1.9614859244 0.7779857984 0.1466176933
N 0.2864028658 -1.5437670891 -0.0389485167
H -2.1977280291 0.7444971267 -0.0327648533
H -0.0115952645 1.7392018631 0.363567535
H 2.8613059339 0.5960770945 0.7152339849
H -0.4257567482 -2.2746004279 -0.1051359262
