14
0
C -1.8379318252 0.3176477139 0.1024335551
C -0.618696839 -0.5166511279 -0.2395282467
C 0.5727382444 0.2993144224 -0.663248048
O 0.5847182231 1.4939415765 -0.7571232812
C 1.8498378472 -0.5137224717 -0.9877946117
O 2.8637113011 0.0005796879 -1.348020688
H -1.6176414465 1.0067649427 0.9179770398
H -2.6701673415 -0.3193678946 0.4022348754
H -2.1507074792 0.9168545317 -0.7527984131
H -0.8292360325 -1.2312302715 -1.0452656582
H -0.3040157775 -1.1367333267 0.6091923383
H 1.2266804363 0.3375107731 2.5540527146
H 1.7647000416 -1.6141450033 -0.8630018322
H 1.2278436477 0.9711064475 2.161234256
