12
0
C 1.9690800136 0.6999644241 -0.2045322535
C 0.6974889242 0.3558345717 -0.1406696091
O -0.3346671232 0.7930845691 -0.9421848815
C -0.1857255902 -0.5145786281 0.7093304955
C -1.3157472022 0.079833585 -0.1497165556
O -2.1157332315 -0.7503427617 -0.8916474624
H -1.5646110317 -1.3715834652 -1.3765315668
H 2.6771448265 0.2770914495 0.4931952146
H 2.3170268659 1.4045868385 -0.9474093711
H -0.0472625211 -1.5865512261 0.5651316298
H -0.2149156482 -0.2876131473 1.7730536207
H -1.9807412822 0.7807697905 0.3555877398
