16
0
C -1.2946905112 0.4315211709 -1.0365632317
C -0.0613719426 1.0260874434 1.036859126
C -0.2938097174 -0.0767018645 0.0097080717
C -0.8498726354 -1.3140689272 0.7255748346
C 1.0647110207 -0.3398607983 -0.5985630999
C 1.9344532397 0.4755713665 -0.0239596563
N 1.2287157749 1.2647662637 0.9346769969
H -2.2415725683 0.6808064938 -0.5570093965
H -1.4747798393 -0.3357949594 -1.7932508901
H -0.9205002945 1.3257897337 -1.5380530044
H -1.0200606745 -2.1211414523 0.0090732303
H -1.7954531676 -1.0702208759 1.2106140009
H -0.1572463288 -1.6732884665 1.4887602307
H 1.2814669005 -1.0669894033 -1.3675727827
H 2.9964781534 0.6057428599 -0.1741214378
H 1.6919415902 1.9608854159 1.4966260081
