16
0
C 3.0546190683 0.077271771 0.741367973
C 1.589962989 -0.0177499058 0.4715379294
C -1.9783470545 -0.7033223849 -0.8123565285
C -1.0614366718 0.2148369095 -0.7710126746
C -2.8779413444 -1.0567551013 0.3355162516
C -0.1645709392 1.1573679029 -0.7230649911
N 1.1737372619 0.9729128231 -0.2687804705
H 3.2195428631 0.0519689696 1.8209489876
H 3.533215628 -0.8245062854 0.3503937001
H 3.5628386199 0.9618017186 0.3192424974
H -2.0890483563 -1.2737275994 -1.7318929301
H -2.6662927341 -0.4350205807 1.2038321747
H -2.7354372557 -2.1025967448 0.6161174397
H -3.9270217613 -0.9303482889 0.0578641302
H -0.3967782025 2.1709445231 -1.0305841899
H 1.8126218895 1.7085992732 -0.5793102989
