11
0
O -3.3777808665 1.8732433652 0.2596522334
C -2.3801941787 1.4609164791 0.6884236389
N -1.4082161397 1.0216091963 1.2510251166
C 1.6768774532 0.3904623228 -0.3033866586
C 1.1596691448 -0.760823022 0.0174145048
C 0.6312320049 -1.9000692309 0.3456339059
H -0.3393057108 -1.9428673488 0.8265741556
H -0.5035766998 0.8575893463 0.8330844987
H 1.5031509634 0.8274786179 -1.2801128899
H 2.316486172 0.9272965778 0.3878222679
H 1.1489368572 -2.8313023037 0.1499652267
