15
0
C 2.0009006041 -0.334281806 1.0430528968
C 0.7431231086 -0.5625081868 0.3120352979
C 0.0621162907 -1.13013713 -0.6358373438
C -0.6933983734 -0.244076941 0.2824804193
O -1.4959322067 -0.7986091712 1.3047970807
C -1.2191468445 1.1214343172 -0.1304831039
O -0.3778321722 1.7969455904 -1.0338543749
H 2.8293866652 -0.8858011631 0.5996402296
H 1.8834873816 -0.6427934816 2.0835008656
H 2.2395285631 0.731028698 1.0425485286
H -0.1013060343 1.1737191706 -1.7103883409
H 0.0383610434 -1.8146726902 -1.4679101452
H -2.3484562139 -1.0367572685 0.9336387273
H -2.2326119223 1.0078387529 -0.5462634522
H -1.3004838894 1.7502333094 0.7580317153
