8
0
N -0.7782490725 -0.2361379728 0.407819848
C -1.2189797631 0.8302883112 -0.099935348
O 2.015610384 -1.7348247321 0.5198445171
C 1.9823920616 -0.7456673634 -0.0769034531
O 2.0101800751 0.2378473182 -0.6874876075
H -1.498214798 -0.7296664038 0.9320902569
H -2.2482237193 1.1852719772 0.0069631693
H -0.5418051677 1.4496428655 -0.6882403829
