9
0
O 1.857728126 0.2888136081 1.8030905399
C 1.0940117015 0.3242183382 0.8975317758
N 0.9152834118 0.5693012921 -0.4018663502
C -0.3069206675 0.2491934865 0.3805505777
C -1.0002470809 -1.030440016 0.0470528521
O -0.6690247157 -1.7700360834 -0.8333833498
H 1.0964953328 1.4288469934 -0.8984701815
H -0.9553334726 1.0617777249 0.7046771463
H -1.8599566354 -1.2598783438 0.7077839897
