15
0
N 2.6179044146 1.3699995137 -0.2901010689
C 1.4247323342 0.7203450132 -0.0919029313
O 0.4925893482 1.5659104077 0.3396446683
N 1.1615398747 -0.509881508 -0.3048129696
C -2.0991245466 -0.7999222262 -0.3639720514
C -1.7741098744 -1.1076524676 1.0217928051
O -1.873839451 0.2466429579 0.5805235001
H 2.7084782727 2.267784302 0.1515967259
H 3.4487107168 0.8091148045 -0.3176778735
H 1.9728929492 -1.0112560963 -0.6445859264
H -1.3144962402 -0.9097326759 -1.1047529619
H -3.1255765755 -0.872293623 -0.7073482246
H -0.7627323592 -1.4296287487 1.2453274898
H -2.5587748079 -1.4078250469 1.7079305707
H -0.3595990552 1.0795413936 0.4224542478
