19
0
C 1.3124712195 1.1019696997 0.2487820577
C 0.6117517367 -0.2219679828 -0.0462177075
C 1.6025960534 -1.2805680808 -0.522091914
C -0.4955265778 -0.0305847642 -1.0697531594
C -1.8171714268 -0.727853718 -0.9569885745
C -1.8355516769 0.5375524173 -0.7099669611
O -1.8329480688 0.6547363476 2.5635969573
H 0.6067955683 1.8506448661 0.6181787029
H 2.1026343798 0.979004463 0.99302405
H 1.7703561348 1.5059554979 -0.6585575184
H 0.1479873069 -0.5853613709 0.8789212681
H 2.3879801825 -1.4520536238 0.2170747387
H 2.0842372558 -0.9663741761 -1.4524578266
H 1.1021000279 -2.2328106639 -0.7101951129
H -0.1103115521 0.1772250911 -2.0724749298
H -2.3476524505 -1.6596556182 -1.0509232238
H -1.981858815 0.1631446531 1.7511798347
H -2.3929328102 1.4205569718 -0.4478850767
H -0.9013734874 0.8811069909 2.544523395
