18
0
C 2.4078347123 0.9324744264 -0.1782216929
N 1.8221022986 -0.482095384 -0.3189357387
C 0.5724447369 -0.5662586922 0.4380864428
O 0.5959468316 -1.0820712242 1.5195065856
C -0.644278142 0.0363834915 -0.2255262708
C -1.5960304807 -1.1075854488 -0.5935253031
C -1.310837342 1.0450725889 0.7055215542
H 1.7066548406 -0.6759988157 -1.308153108
H 2.3669515016 1.1383925614 0.8956495814
H 1.6987820691 1.5876942938 -0.6951179482
H 2.483878565 -1.1486904677 0.0699258533
H -0.3255612614 0.5503440378 -1.1359196208
H -1.9099217648 -1.6426427761 0.3038511867
H -1.1329919962 -1.8263132627 -1.2737729456
H -2.4838323148 -0.7068580545 -1.0842573673
H -2.2161781275 1.4418980303 0.2433663843
H -1.5839512445 0.5679772032 1.6476309536
H -0.6372738819 1.8742334925 0.9228434533
