17
0
C -1.6983519864 0.4821485805 1.1179050371
C -1.2621096842 -0.3751337416 -0.0399235462
C -0.8839017578 0.2586613948 -1.3603422232
C 0.151189414 -0.3462379684 -0.4876826582
C 1.2977363825 -1.3081132591 -0.6183684293
C 1.4269447706 -0.0014671452 0.0682968416
C 2.1992868589 0.8347114788 0.7266649876
H -2.7643687114 0.7128807052 1.0582651507
H -1.5128645578 -0.0184793544 2.0704092719
H -1.1479986029 1.4252351394 1.1273290091
H -1.7543447984 -1.3398810269 -0.1159514158
H -1.1469582899 -0.2646078472 -2.2714397393
H -0.9177137581 1.340020719 -1.4272818382
H 1.8215431279 1.7870158803 1.0809676017
H 1.7635203252 -1.4180315991 -1.5926106952
H 1.2854831009 -2.2091672866 -0.0132788452
H 3.2360841668 0.5978393306 0.9341784909
