14
0
C -0.8603061397 -0.6791039508 1.1294632362
C -0.1889004388 -0.0587115761 -1.6724811872
C -0.2483785199 1.0197559701 -0.621334031
N 0.177870477 0.2296746675 0.5782834726
C 1.3510768788 -0.6007832881 -0.0086447736
O 2.1560606941 -1.0627320884 0.7414833012
O 1.1883102572 -0.6408682704 -1.2643865568
H -0.3818287552 -1.3677815209 1.8226068251
H -1.2968646611 -1.2022725923 0.2798301201
H -1.6124571528 -0.0824168844 1.6421646661
H 0.010921034 0.366928535 -2.6569667319
H -1.2464661324 1.4340530168 -0.4782871789
H 0.4890035363 1.8405220677 -0.6798611205
H 0.5682659225 0.8014299141 1.3210139584
