10
0
O -1.768089503 1.0146058049 0.9243391631
C -1.3419164298 0.2679121009 0.0957610703
C 0.4452249243 -0.618171983 -1.3911863319
N 0.6260727625 -1.3131067767 -2.2839974561
O 1.825878774 -0.8965921562 1.0273582577
C 0.966004995 -0.0754223327 0.9930666847
C 0.1479839086 0.2584730654 -0.2679657868
H -1.977323907 -0.4616605607 -0.4373184526
H 0.6707273396 0.5321092087 1.8669768496
H 0.4054371359 1.2918536295 -0.5270349982
