8
0
O -2.5361695667 0.515003265 0.8687354225
C -1.4228020054 0.9700261088 0.795573758
C -0.277609326 0.202468517 0.2654267815
O -0.1219810762 0.3753688795 -1.0007622012
C 2.0801018273 -1.5322836252 -0.699427743
O 2.7727031926 -2.2509516937 -0.1907933449
H -1.1480411419 1.9509381169 1.2450247199
H 0.6359110963 -0.1729055683 -1.2851173928
