14
0
C 0.7363734263 -2.504359355 0.1483458465
C -0.5056575363 0.8420269783 -0.6955048592
C -1.1237012954 1.7297566379 0.3504856364
O -0.8064350641 3.0937581557 0.1449127472
C 0.3291710807 -0.1200250052 -0.4208547336
C 1.1497549638 -1.087039339 -0.1290702312
H 1.0453110371 -2.8075040563 1.151386481
H -0.3438965682 -2.6208821309 0.0698336266
H 1.2101920637 -3.1890870234 -0.5587736304
H -0.7653672757 1.0501943344 -1.7303774338
H -2.2127774168 1.6725998469 0.2950638848
H -0.8183980532 1.3918278738 1.3470992759
H 0.1493799306 3.1773430877 0.1406577311
H 2.2119187078 -0.8579820047 -0.0865873415
