14
0
C 1.9537823695 -0.341870972 0.0454703551
N 1.5974701141 -1.3751213571 0.8783413199
C 0.6047835294 -1.158595991 -0.2098064453
C -0.5084491161 -0.4540514442 0.1210692963
C -1.8465024275 0.0117011736 -0.1392742576
N -1.0362962988 0.450143019 1.03236419
H 0.6194745264 1.6370152046 -1.6237759635
H 1.8769297292 0.6548508602 0.510892768
H 1.2474777285 -1.1346039453 1.8095801658
H 0.5863361761 -1.8767804491 -1.0138921951
H 0.2413536398 2.2801061999 -1.660913666
H -2.7081907001 -0.594962737 0.1149576937
H -1.9916339616 0.7126760623 -0.9559519454
H -0.6845963091 1.397023376 0.9503296843
