18
0
C -2.7640243265 -0.5944159798 0.1167329848
C -1.5742530985 -0.2932224587 -0.688378787
C 0.8276604107 1.6454657512 -0.1637189732
C 0.9296231136 0.1541355823 -0.4646094982
C 2.1886894978 -0.4520806901 0.1452062113
C -0.3267922698 -0.5611085463 0.0272277858
H -2.6333649865 -1.2342649401 1.0020347605
H -3.6322249351 -0.8925176726 -0.4714294431
H -2.9980232199 0.4219665705 0.4827962355
H -0.0615430459 2.0734037259 -0.6321888027
H 0.761392683 1.8207322028 0.9151093713
H 1.7007974553 2.1856990212 -0.5351412423
H 0.9615508858 0.0268837344 -1.5510622513
H 2.2785075478 -1.5149855707 -0.0924319325
H 3.0854698333 0.0486615563 -0.2252099769
H 2.1823820648 -0.3540503037 1.2350879704
H -0.2632884203 -1.6413627752 -0.2293490455
H -0.4024731898 -0.5408112076 1.1300316331
