14
0
O -0.5687726432 2.1614552429 0.7090038733
C -0.5910817207 0.9827572395 0.5219037568
C -1.6958548515 -0.0174873785 0.1955652485
C -0.5812863766 -0.9711927715 -0.3045404971
C 0.5023148162 -0.0719441123 0.3513914125
C 1.7488111145 0.3157295212 -0.4149712734
H -2.1895537645 -0.3705766619 1.1032306011
H -2.4528563902 0.3176824474 -0.5126104311
H -0.6312661305 -2.0007805368 0.044590509
H -0.4990626163 -0.9701618198 -1.392165136
H 2.4148942665 -0.5393549811 -0.5433967169
H 0.7605268482 -0.4567351656 1.3439911942
H 2.2944851956 1.0987321097 0.1132422116
H 1.4921442525 0.6981268668 -1.4052407525
