14
0
C -1.8202154199 0.8858835093 -0.1321711968
O -1.2794911688 -0.3370575276 0.3115024129
C -0.180108655 -0.739808455 -0.4352810731
C 0.8953684334 -1.5040475099 0.3070447833
C 1.1358030911 -0.142376119 -0.1843376116
C 1.9405916445 0.8915763331 -0.2762963476
H -1.093593753 1.6998222032 -0.0319897343
H -2.1430473275 0.8247785618 -1.1790186923
H -2.6852973692 1.0998993852 0.4937320766
H -0.4162718334 -1.0590930117 -1.4509341639
H 1.6285975441 1.8046963789 -0.7703819805
H 0.7373317864 -1.6281148549 1.3727785315
H 1.3620796634 -2.346233813 -0.1908570134
H 2.941271364 0.8661709196 0.1405050092
