9
0
O 2.1161031405 -0.9485915367 0.7190265514
C 1.0381226415 -0.5097176046 0.484377008
N 0.7016901284 0.8754194969 0.3317365479
C -0.5559940537 1.1443874899 0.0759578602
C -1.1465902571 -0.2263289273 0.0502188806
O -0.0945306001 -1.1814492623 0.3104149665
H 1.4308898844 1.5667252505 0.427276491
H -1.5868894137 -0.4417694084 -0.9253585686
H -1.9176774702 -0.333482498 0.815650263
