17
0
C 1.8317790608 -0.5597429785 -0.3248447627
C 0.5562664847 -0.1414360115 0.3981591835
C 0.098398564 1.2911952865 0.0775668887
C -1.4420257457 1.2583978024 0.0914371552
C -1.7515162596 -0.1929204936 -0.1510811948
C -0.6691289826 -0.9411445827 0.0239908403
O -0.6355492315 -2.2950630617 -0.0439900508
H 1.6932367213 -0.5273591918 -1.4083372482
H 2.6553435888 0.1090876349 -0.0687381774
H 2.1548815105 -1.5698278971 -0.0527320684
H 0.7183496922 -0.2543561981 1.4790946863
H 0.4422452314 1.5487097276 -0.9281004775
H 0.5186679972 2.02736033 0.7641001539
H -1.8683326276 1.9202418406 -0.6661348374
H -2.736315446 -0.5800231453 -0.3746160797
H -1.8407456578 1.5919707952 1.0565392538
H 0.2747370998 -2.5937418569 -0.0005882648
