12
0
N -2.2218346878 -0.5431745472 0.678301329
C -1.0797819089 -0.1726281632 0.247921275
N 0.0728128714 -0.9322252029 0.3703376461
C 1.1760538349 -0.192733973 -0.0472285708
O 2.4283965319 -0.6855861614 0.0622498069
C 0.7465199859 0.9777159407 -0.5248167558
N -0.6547821983 0.974170188 -0.3997003669
H 0.1087750862 -1.7060483496 1.008866424
H -2.9361062524 0.1491449157 0.489804823
H 2.5254190967 -1.4538045815 -0.5075147435
H 1.2907157932 1.7735104906 -0.9999766956
H -1.2186621528 1.8022454438 -0.4184341716
