16
0
C 1.347326684 -0.4852118003 0.7938236609
C 0.1567889649 -0.0425956203 -0.0673222098
C 0.6129987672 0.3124314361 -1.4886689886
C -0.6405173597 1.0589409053 0.5755568497
C -1.867129345 0.5955504929 0.8104812882
N -2.0316518622 -0.7565691861 0.3895674591
C -0.9069802511 -1.108890438 -0.0977967554
H 1.0225655371 -0.7604733503 1.7984337592
H 2.0762146271 0.322685804 0.8788765231
H 1.8476801301 -1.3462888494 0.3453674863
H 1.3218984816 1.1419614428 -1.4632113016
H 1.1078386065 -0.5405414714 -1.9582749933
H -0.2593068434 2.0454403217 0.7978080334
H -2.7073980168 1.1042975754 1.2611275391
H -0.2343850006 0.604008444 -2.1110510026
H -0.7479101198 -2.1066987065 -0.5001773477
