15
0
O -1.5863998516 1.0168645057 0.6394311616
C -1.4319585397 -0.3926605659 0.4288431731
C -0.0541047994 -0.1688305876 -0.2115397256
C 1.111273258 -0.499725433 0.6960519764
O 2.3212990797 0.0153688628 0.1979839013
C -0.4632764599 1.3114736363 -0.2040079672
O 0.2254192406 -0.7779089966 -1.4467199003
H -0.408845106 -0.4828208139 -2.1028524237
H -1.4714594833 -0.9611040595 1.3619823203
H -2.1761469581 -0.7875994394 -0.2730026521
H 0.9484634581 -0.0504575071 1.67728381
H 1.1590469392 -1.5902023306 0.8205378548
H 2.416760588 -0.3097867675 -0.7014815623
H -0.7815608279 1.6833716189 -1.1864281301
H 0.2328324622 2.020253877 0.2477831636
