11
0
O -1.8517736061 0.8361019541 0.9143209556
C -0.875787751 0.1065510193 0.3551979405
C -0.6741239728 -0.6999153831 -0.688138095
N 0.7254195508 -1.0076874001 -0.3227528331
C 1.4419550479 0.2687753059 -0.3605226816
C 0.5432510088 -0.0326853384 0.7884402777
H -2.6655772272 0.7158607243 0.4182540128
H -1.1753786815 -1.0203779932 -1.5885071452
H 1.1316074163 1.0154053968 -1.0837971301
H 2.5103256736 0.177369382 -0.1896728139
H 0.9040235411 -0.2535136677 1.7837915121
