10
0
C 0.9292786698 0.8423063926 -0.1436501112
C 0.71740183 -0.3922467992 0.6650877534
N -0.3994750689 -1.1650173068 0.0827187927
C -1.3415404104 -0.5553100721 -0.507202931
C -1.3345568957 0.9131534012 -0.2774270967
N -0.1755650853 1.3700265262 -0.5304114309
H 1.8761940277 1.1664150607 -0.5550252949
H 1.6075114691 -1.0211068221 0.6641054713
H -2.1643799279 -1.0922844919 -0.964239822
H 0.4534583916 -0.1848158884 1.7095756695
