19
0
C 0.9662978477 0.563884622 1.5776964331
C 0.7106195368 -0.9101205965 -1.5236486525
C 0.3289267217 0.3537818342 -0.8140558182
C -0.4818480221 -0.1202177612 -1.9777037103
C -0.2040663359 0.3917435008 0.610272383
C -1.0284898991 -0.8256534228 0.9975784187
O -1.1018961134 1.4962116507 0.7449311599
H 1.6563808593 -0.2795101405 1.5081456034
H 0.6010298061 0.6381535424 2.6030321528
H 1.5263381293 1.4743651381 1.3473861096
H 0.5248887511 -1.852984073 -1.0261831702
H 1.6025956613 -0.9009570157 -2.1360724875
H 0.9778925302 1.2011256096 -1.0244409451
H -1.4633921893 -0.5307556568 -1.782254914
H -0.4112267998 0.4326531381 -2.9049718384
H -1.8658465882 -0.9697292195 0.3146610644
H -1.4386814064 -0.6702632221 1.9958154061
H -0.4220260481 -1.7314338468 1.0147990688
H -0.6665784412 2.2839919192 0.4116507366
