17
0
C -0.8952572963 1.5574241197 -0.0577473588
C -0.7935240421 0.2813315611 0.7256262229
C 2.1909400391 -0.7174490508 -1.3456841417
C -0.2288795458 0.2301394817 1.9258671872
C -1.3677007087 -0.9339607786 0.0580149479
H -1.9408739656 1.7942182121 -0.274875653
H -0.387232491 1.4590833979 -1.0216780007
H -0.4554831964 2.3988662721 0.4771749896
H 3.257983648 -0.5101672397 -1.4126205582
H 1.6785068529 -0.2361615992 -2.1781270112
H 2.0274621797 -1.7932763425 -1.3940280578
H 1.8018812029 -0.3333329988 -0.4032839525
H 0.1846695985 1.1156686957 2.3948156328
H -0.1613927563 -0.6992268197 2.4797360395
H -1.260121 -1.8255029091 0.6754108397
H -2.4301296619 -0.7894508791 -0.1583740163
H -0.8710918573 -1.1154911225 -0.8997891094
