11
0
N -1.9089956994 -0.1470926662 0.1095392537
C -0.6068308986 0.318754156 0.0701307821
C 0.400782932 -0.7541978558 0.1050907728
C 1.6678921493 -0.4936005554 -0.1258370817
N 2.8143947015 -0.2911034995 -0.448750373
N -0.2445798497 1.539923215 0.0540195482
H -2.0802785078 -1.0694371889 -0.2511806166
H -2.6298293933 0.5206378818 -0.1036849919
H 0.126061853 -1.7706180808 0.3543110848
H 3.4618939852 0.0017309135 0.2756974502
H -1.0410092726 2.1683226801 -0.0046688287
