14
0
O 1.9511516325 -0.0394315763 0.1881299353
C 0.9510118885 -0.173743761 -0.8047529578
C -0.3948585715 0.341766856 -0.3377868021
C -0.6516362043 -1.2053776144 1.4241142575
N -1.0958090554 -0.0897602271 0.6240071708
C -0.980267138 1.5319540175 -1.0390852175
O -0.4198213847 2.1360874604 -1.9138359088
H 2.178076835 0.8889108497 0.2690379539
H 1.2264339685 0.3443750655 -1.726228029
H 0.8776405704 -1.2395667892 -1.0284494644
H 0.1636835612 -1.790066692 0.9920418005
H -1.509531071 -1.848562352 1.6230244491
H -0.3116090125 -0.8145651191 2.3858952102
H -1.9806040187 1.815839882 -0.6632213976
