10
0
C -0.3321978231 -1.8513893994 -0.6611069727
C -0.6995611537 0.9442988652 0.6080325498
N 0.6371701092 0.9275373281 0.0574452422
C 1.2429466874 -0.1133504055 -0.2397508464
O 0.7526677351 -1.4314528961 -0.073922589
H -1.0813342391 -0.031162851 0.9282562926
H -0.6722768879 -1.0206223852 -1.3332534855
H -1.3787265585 1.3596893802 -0.1378577115
H -0.7023290801 1.6215532903 1.4619073976
H 2.2625532109 -0.1275289268 -0.6111098769
