10
0
N 1.6332868859 -0.2621020891 -0.2010811674
C 2.6488192145 -0.3657150009 -0.7602897561
C 0.4170396617 -0.1385253899 0.4816169901
C -0.8395038446 -0.5935946017 -0.1971499164
C -0.5812403594 0.8690460738 -0.0031108438
H 0.5169662825 -0.2974051425 1.5467053433
H -1.5848058136 -1.0786617598 0.4180791585
H -0.7343104299 -0.9958421346 -1.1950914808
H -1.146683176 1.404522087 0.7471202789
H -0.3020804211 1.4505909576 -0.8706756064
