16
0
C 1.8036146416 0.2776482997 0.7860734404
O 0.5260994931 0.5283412568 0.6515671123
C -0.3443961549 -0.1470407886 -0.0247096531
C 0.072532519 -1.4097837338 -0.6585868847
C -1.7386177247 0.3685883544 0.0137917663
O -2.2703769259 0.6427913793 -1.275125462
H 2.3237362319 0.9627882237 1.431806687
H 2.2207034268 -0.6392873646 0.4026566697
H 1.5858907074 1.288846053 -1.5685507029
H 0.9380742826 1.2958640725 -1.9506118518
H 0.8920536314 -1.2482447046 -1.3711831727
H -0.7640059953 -1.8656526438 -1.1841066582
H 0.4557154482 -2.1162361316 0.0950723259
H -2.4202864994 -0.3757259794 0.4365606099
H -1.7640256686 1.2532329619 0.65997358
H -1.680940413 1.263578745 -1.7099848063
