14
0
C -1.2877901059 0.2305200679 0.5717365579
C -0.2245570003 -0.5039375579 -0.2403308323
C 0.9364998359 0.3290472115 -0.6984931176
C 1.048617106 1.6413040007 -0.570830415
C 0.2311319349 -1.7415498391 0.5089321759
O 1.3678103477 -2.0913755584 0.6544510638
H -0.8573340965 0.6726277619 1.4724755837
H -1.7461516427 1.0276366509 -0.0134321085
H -2.081765748 -0.4540930566 0.8761827338
H -0.7172312305 -0.9167210081 -1.1355219831
H 1.7404212024 -0.2273843101 -1.1697792734
H 0.2867888579 2.2491649172 -0.0966512612
H 1.9244807901 2.1602578144 -0.9396400327
H -0.6021422509 -2.3470040941 0.9285469089
