16
0
C 1.4532801984 0.6717763862 -0.1569287796
C 0.1121259375 0.0222825774 0.1443228279
C 0.2452657572 -1.1908248827 1.0511843968
C -1.0497891104 1.0010739155 0.4907044754
N -1.7419147316 0.6269165817 -0.7786725233
C -0.7828780053 -0.1692161266 -1.0435276805
O -0.6174666094 -0.9646576154 -2.097282154
H 2.1269234541 -0.0361610663 -0.6443921833
H 1.9275466004 1.0093136925 0.7673515069
H 1.3357796885 1.5349333765 -0.8147140408
H 0.6879779209 -0.902440917 2.007269377
H 0.8880879497 -1.9468079632 0.5952512133
H -0.7267143434 -1.6469506022 1.2481046993
H -1.6296732365 0.7403960166 1.3778972717
H -0.7754959518 2.0569798649 0.5256522302
H -1.3797205185 -0.848671238 -2.677949637
