19
0
C 2.4975418303 -0.4728987382 -0.5224825832
C 1.3176174058 0.1239956042 0.2027560402
O 1.1512250577 -0.0396736518 1.3851624297
C 0.373550299 0.9721647611 -0.6315149878
C -1.0159886179 1.120449569 -0.0364774183
C -1.8895285047 -0.095905834 -0.1277284929
C -1.5878358053 -1.2520700207 -0.6969596956
H 2.9951198334 0.2809873332 -1.1366227762
H 2.1455114433 -1.2555183213 -1.1998857506
H 3.1992437286 -0.9013531963 0.1894583893
H -0.9148459039 -0.4163490062 2.9357245397
H 0.8525783776 1.9557067468 -0.7035035274
H 0.3382340445 0.5873693213 -1.6545155166
H -0.9211661243 1.3971153156 1.0175893643
H -1.5326740016 1.9548246636 -0.5213469895
H -2.8672690294 0.011556275 0.3352401745
H -1.5493058845 -0.443161786 3.3284052151
H -0.6295024412 -1.4370902388 -1.1700932328
H -2.2926347071 -2.0737537964 -0.7053061818
