16
0
C 1.7485866797 -0.932251694 0.149780653
C 0.6317317459 0.0989848835 0.108035543
O 1.2985044006 1.4188637953 0.0955937587
C -0.1323913045 0.1367792882 -1.1791802094
N -1.4063714449 0.2416738007 -1.0099417738
C -1.7569053365 0.2445344706 0.4300710331
C -0.4553702621 -0.0179366442 1.094827308
H 1.3688905167 -1.9379544902 -0.0382128785
H 2.2051573678 -0.9119733698 1.1392134459
H 2.5254717008 -0.6962762114 -0.5800857955
H 0.8393813777 1.873271829 0.8127547832
H -2.0444338639 0.4784288797 -1.7555817712
H 0.2924059565 0.1299573643 -2.1784158719
H -2.5223843523 -0.5173272808 0.6061941519
H -2.2299499573 1.225961259 0.59202725
H -0.4110102241 -0.8085558798 1.8311063733
