14
0
O -0.6630781948 1.6685910376 -0.3503888451
C -1.0315802162 0.4509918772 0.13692675
C 2.2654046518 -0.5497091249 -1.1706482867
C 1.6605500993 -0.409299649 -0.0225747444
N 1.1707334969 -0.2846931703 1.0814735358
C -2.0311025495 -0.2174190145 -0.4207986714
C -0.2537095472 -0.0425462557 1.3216835322
H 0.1074142966 1.99578751 0.1177101198
H 2.3304896619 -1.5241466051 -1.6323814922
H 2.6874302971 0.3093637984 -1.6715360884
H -2.5671383358 0.1906172877 -1.2668864185
H -2.3249731008 -1.181927859 -0.0341160487
H -0.6871036551 -0.9722161238 1.6895879629
H -0.3176459044 0.6815712913 2.1391196947
