13
0
C -1.5766804772 0.7936034924 -0.5029397164
C -0.6207393094 -0.3396556222 -0.2099909159
O 0.4194515783 -0.4020371026 -1.1418555945
C 1.6262585915 -0.2841535105 -0.4929501837
N 2.6974429172 -0.3254305732 -1.1436518669
C 1.4094620221 -0.1105751281 0.9861311225
N 0.1135746459 -0.1566127223 1.0549809393
H -2.0466492 0.6370294978 -1.4732580632
H -2.3615356456 0.8379442668 0.2549709506
H -1.0393792011 1.7422576644 -0.5187248386
H -1.1448929749 -1.3019006359 -0.1872001603
H -0.3900253347 -0.0695839426 1.9253635158
H 3.4685213878 -0.219294684 -0.4914181889
