16
0
C 1.5827019989 -0.4762011207 0.6479284422
C 0.2956365064 -0.0974893913 -0.0490273872
C 0.4850310754 0.3869064377 -1.4647939018
C -0.7365083106 0.5150947366 0.909242122
C -2.0140950984 0.6883771072 0.1525955742
N -2.1286657585 -0.4893611912 -0.3381002966
C -0.8934489167 -0.895373308 0.3893185952
H 1.4009593437 -0.8286646538 1.6653453769
H 2.255846218 0.3822551956 0.7022558715
H 2.0942021718 -1.2705286763 0.1002635162
H 1.0863601647 1.2985928545 -1.4761954673
H 1.0118485141 -0.3705584183 -2.0494758806
H -0.4742097374 0.8622634442 1.8981777585
H -2.6600429238 1.5384486471 -0.0566270588
H -0.4636445035 0.5889737387 -1.9588023333
H -0.8406787437 -1.8307424021 0.9283090689
