16
0
C 2.3942673927 0.6850207876 0.3217441384
O 1.100881555 0.6971813962 0.2474168228
C 0.2578223174 -0.2295006165 0.5624290661
C -1.1932552054 0.118782725 0.3926512374
C -1.5426236876 0.6052594981 -1.0212163406
C -1.9977814108 -1.055193958 0.7458597649
N -2.6311796436 -1.9724421785 1.0152729123
H 2.8758946587 1.5828688081 -0.0243516095
H 2.1061409331 -1.0488900661 -1.239627392
H 2.8900125259 -0.1124028357 0.8574328452
H 0.6002672012 -1.079550858 1.1388028494
H 1.4195997874 -1.3657604279 -1.162502495
H -1.4788996358 0.9036744038 1.1074371616
H -2.5942646312 0.8854631861 -1.0829778004
H -0.9345402088 1.4752163798 -1.2664244966
H -1.3400379482 -0.177513244 -1.751817664
