15
0
C -0.6734166096 -1.6731323794 -0.6753475266
C 0.2044225536 -0.7671185606 0.1866777278
C 1.123022938 0.2058558435 -0.6455577713
C 0.7078912903 1.6162637138 -0.2188556733
C -0.2471600855 1.5480341967 0.7058328197
C -0.5991705686 0.1749914664 1.0218280367
C -1.2308015321 1.1274477588 1.6515579914
H -1.3120622801 -1.0762285572 -1.3291467821
H -0.0472861769 -2.3083836172 -1.30350964
H -1.3101089546 -2.312952175 -0.0630854054
H 0.8060059405 -1.3908745955 0.8522909947
H 2.1807951344 0.0032755739 -0.4455393896
H 0.9772573961 0.0330194499 -1.7187516266
H 1.1501877502 2.5104408293 -0.6355045001
H -1.9739627956 1.4259610528 2.3749277445
