13
0
O -0.9987331337 1.0269256541 1.1636891244
C -0.7888153832 -0.1412659833 0.3613354627
C -0.7460492728 0.3338726432 -1.0794659031
C 0.4494925375 -0.8771951783 0.7087696524
O 1.5276571983 -0.6796328659 -0.1545241729
C 1.5672514693 0.2078801343 -1.0446772351
O 0.5386161427 0.9544856808 -1.3512126103
H -0.3836568703 0.9368705372 1.8963314239
H -1.6573161784 -0.801803385 0.4809066095
H -0.8854389865 -0.4940702541 -1.7791894717
H -1.4730562583 1.1165751663 -1.273481429
H 0.4248555786 -1.9218175035 0.9812097481
H 2.5088971567 0.4023673543 -1.5374601989
