12
0
N 1.9247153512 0.4078926805 -0.5287874113
C 0.8617207975 -0.0448538073 0.3335108159
C 0.3127895079 -1.3818704494 -0.1468792498
N -0.9668555838 -1.0959384011 -0.2476936613
C -1.2467002053 0.2629079769 0.0538580031
O -2.5161697405 0.6391113049 -0.0476356083
N -0.236157643 0.9340116197 0.3800441671
H 2.5887590854 -0.3391390572 -0.6773178476
H 2.3993367547 1.2054744004 -0.1301828775
H 1.1642351433 -0.2216031346 1.3818806593
H -1.6830160948 -1.745444571 -0.536099266
H -2.5613043727 1.5791444381 0.1583692766
