11
0
C -1.6480693221 -0.074079106 0.087070875
N -0.5882117792 -0.2788735116 1.0767938733
N 1.0630865292 2.617484939 -1.130298673
C 1.5291115818 1.6375308918 -0.7667029304
C 1.3714142771 -1.4785552376 0.3689330471
N 0.3368964069 -0.9719283597 0.7139554478
H -2.5632128457 -0.5436215109 0.450215592
H -1.383651091 -0.4841930017 -0.8903279188
H -1.8216312733 0.9979047897 -0.0008769071
H 1.9409515094 0.7000089211 -0.4317716548
H 1.5718410068 -2.5377588141 0.4673332487
