13
0
N 1.9750169881 1.3500218937 1.5001933887
C 1.9627226506 0.9350178493 0.4300623438
C 1.9592671598 0.3957093913 -0.9103612825
C 0.7285043662 -0.0589900992 -1.5290941026
C -2.0850472218 -0.9789780501 0.6121186885
C -1.3925253571 0.00181513 1.1690088374
N 1.0581568754 1.0635148723 -1.9416708105
H 2.9222085998 0.0409872337 -1.2590716945
H -0.0433851845 -0.8060342297 -1.632599404
H -2.8526594307 -0.784422313 -0.1291498933
H -1.9232489335 -2.0158284145 0.8859488398
H -0.6321658868 -0.1857197568 1.9181777708
H -1.5604106253 1.0398834931 0.9038543185
