15
0
C -1.9394438292 -0.924763769 0.1867180072
C -0.8760396571 -0.3236903545 -0.6947984289
C 1.6736179546 -0.1249425031 -0.3627172282
O 2.5849277143 0.810529476 0.1305583765
C -0.5769243619 1.0883533893 -0.3802465013
N 0.3302235535 0.0656084674 0.1700947072
H -2.0419354399 -0.4473485349 1.1836824577
H -2.9043487951 -0.8215832733 -0.3140828146
H -1.7776217594 -1.9941156371 0.3403840586
H 1.9723079447 -1.1544615279 -0.1441910451
H 1.5884334133 0.0003073385 -1.4393696105
H 2.9705000293 0.4958438613 0.9491288194
H -1.0972836088 1.6321970764 0.4139376974
H -0.1178878645 1.7406146367 -1.1183099964
H 0.2580557063 -0.0318946457 1.1788345013
