14
0
C 1.2753570505 0.4342857643 -0.9168724933
C 0.5733199607 0.1498776359 0.4181889169
C -0.849023599 0.7453811131 0.4757327359
C -1.6406278947 -0.3492230571 -0.1473940977
O -0.9890816804 -1.4681479656 0.0395632479
C 0.2265740644 -1.3092103106 0.5278895743
H 1.4149232044 1.508553933 -1.0637679935
H 2.255110226 -0.0445658863 -0.9441197035
H 1.1854093517 0.5086949537 1.2446041414
H -0.9403977556 1.7163973124 -0.0108256834
H -1.1529720651 0.8557202967 1.5323628308
H 0.6830882886 0.0551653823 -1.7539198339
H -2.6980354314 -0.4396211228 -0.3343229359
H 0.8745072797 -2.1651140491 0.412963294
