16
0
C 2.5003337164 0.3731363353 -0.0696822486
C 1.2891476359 -0.2537564337 0.5791303607
O 0.1471591097 0.0694322104 -0.1884137015
C -1.0257745657 -0.5194038724 0.3237303346
C -1.7335968875 0.0281627352 1.4473756971
C -2.2644169053 0.0345771474 -0.466741312
H 3.398958416 0.1443471954 0.5056171741
H 2.3882245902 1.4569472091 -0.1208825015
H 2.6310995028 -0.0070181033 -1.0836397504
H 1.4021009007 -1.3458485578 0.6366973898
H 1.1659978263 0.1165913844 1.6065607188
H -0.9755536405 -1.6082448908 0.2462140754
H -2.8576511241 0.763882563 0.115276207
H -1.3625376738 1.0635824918 1.5656078498
H -2.9388621727 -0.7630206781 -0.7549735555
H -1.8381127285 0.5704122642 -1.3124957375
