14
0
C -1.6890054709 -0.3888377244 0.4536172499
C -0.4906160586 0.1596712629 -0.3245161523
C -0.6289158143 1.598525791 -0.5716598981
N -0.7318164109 2.7277302832 -0.74536043
C 0.8115640435 -0.1037384804 0.4060018005
O 1.2809029164 -1.4325340215 0.3315562417
C 2.0409973558 -0.4150632744 -0.3088578746
H -1.7777245824 0.103407674 1.4229948176
H -2.6166596837 -0.234020653 -0.0962112148
H -1.5497345718 -1.4576718175 0.6152601751
H -0.4333434262 -0.3347530492 -1.2984104337
H 2.999652029 -0.1941113827 0.1490639994
H 0.8807305113 0.3507467444 1.3929586875
H 2.033004163 -0.4452983524 -1.3948679684
