14
0
C -1.3219934262 -0.2926679233 1.0694198331
C -0.5529840587 0.7234489505 0.268640279
C 0.947763727 0.7407019666 0.0810971007
C 1.4792641043 -0.6572612022 -0.1537836271
C 0.6766931142 -0.8751791886 -1.1953554137
C 0.0337997298 0.4920855389 -1.1061290838
H -2.365582979 -0.3218278402 0.7488872046
H -1.303696361 -0.0380259266 2.1311471771
H -0.9506611987 1.7329766992 0.3613764015
H 1.5368610516 1.631457363 0.2479767475
H -0.9043020214 -1.2928450079 0.953944025
H 2.13945912 -1.2893897127 0.4264026284
H 0.4376474937 -1.7509884205 -1.7854400411
H -0.1397362954 1.1764577036 -1.9246932309
