12
0
O -1.0313665841 2.5414087609 0.0033182245
C -0.3273350311 1.5903462932 0.0370433382
C -0.836230512 0.1446731338 0.2542051874
C 0.0864165069 -0.6522832114 -0.6104813654
N 1.3006791316 -0.518069096 -0.1228525153
C 1.7859721159 0.6226334518 0.132906558
O 1.0371624391 1.7524150794 -0.0693609604
H -0.7277056563 -0.0467472506 1.3299716013
H -1.883345659 0.1122118326 -0.0289977541
H -1.0546297568 -3.152429422 -0.9700487473
H -1.3590676136 -3.7683739582 -0.6770691163
H 2.7934896193 0.8132963863 0.4731275494
