15
0
C 3.0454389264 -0.9684717609 -1.837938887
C 1.8956492887 -0.6015536384 -1.0217095501
C 0.9440125811 -0.3002680128 -0.3539423779
C -0.1680964663 0.0603018002 0.4648043466
C -1.4004070303 0.2490262404 0.0008650255
C -2.5773143706 0.6346708089 0.8444716893
O -2.2685069206 0.936852318 2.1840351494
H 2.974978651 -0.5205361384 -2.8304797446
H 3.9731637181 -0.6258864354 -1.3770357065
H 3.1065100925 -2.0515522056 -1.9587271376
H -1.7011655017 1.7107884873 2.1977015569
H 0.0224445412 0.1678539213 1.5283352627
H -1.5996748848 0.1202664117 -1.059333146
H -3.1027872544 1.4702840624 0.3612792489
H -3.2869073703 -0.1973698585 0.8779372705
