14
0
O 2.2740253476 -0.3164642731 0.320212014
C 1.2989595701 0.3665415245 -0.3879330061
C 0.1103558657 -0.5066771604 -0.8851754994
C -0.4019014279 -1.1979293816 0.3340231101
C -1.814413129 -0.7466712554 0.2210368596
N -0.7941923566 0.2844674497 -0.0645500353
C 0.2573201841 1.1770321781 0.4716186248
H 1.7855024224 -0.9692424665 0.8474529865
H 1.786111829 0.9683932532 -1.153441745
H -0.1394680418 -0.689412818 -1.9297149722
H 0.389776519 1.1037358019 1.5495808692
H -2.4568566138 -0.8877304646 -0.6525929957
H -2.3593428201 -0.6537690729 1.1559968471
H 0.1048906516 2.2097036853 0.1536579422
