19
0
C 2.5230917426 0.4277937394 -0.6023130117
O 1.2612599645 0.564256142 0.0093704935
C 0.4717744752 -0.5916947701 -0.1175873736
C -0.8570961615 -0.4357522152 0.5631657959
C -1.802643461 -1.5766018133 0.3284120332
C -1.15771121 0.6163349404 1.3116832162
O -0.4420030037 2.0494082293 -1.8222563758
H 2.4223323103 0.2249995561 -1.6752596414
H 3.0535298445 1.368494383 -0.466065145
H 3.0988860303 -0.3816450217 -0.1387721078
H 0.306102376 -0.8165753284 -1.1824357203
H 0.9982944584 -1.4567151525 0.3147038833
H -1.3035007218 1.9331226584 -1.4177274087
H -2.7396464443 -1.4297286418 0.8639028141
H -1.3656897443 -2.5224350309 0.6614630323
H -2.0278439795 -1.6853489951 -0.7361150678
H -2.1241025663 0.6945264411 1.7956916444
H -0.447649623 1.4170299134 1.4718370744
H 0.1748057136 1.760690966 -1.1366171352
