15
0
C 0.7334939015 1.6780833564 -0.4145647897
C 0.9480859615 -1.4077413392 0.5069634864
O 0.8558341284 -2.3045681681 1.4625415894
C -0.6493847005 1.2308324711 0.0372038189
C -1.0756690827 -0.1523871297 -0.4039218452
O -0.4086837249 -0.7774794772 -1.4630123244
C -0.3392033649 -1.430220126 -0.2014628738
H 0.8150441457 1.6410321847 -1.5012872942
H 0.9142889442 2.7052084496 -0.0928522849
H 1.5121205537 1.0351206447 -0.0062436853
H 1.6794378427 -2.2998572272 1.9603991985
H -0.7367558645 1.28137316 1.1269936753
H -1.3982468314 1.9266665547 -0.3533040061
H -2.1568731858 -0.291093318 -0.4264884983
H -0.9430507229 -2.3368080357 -0.1308521667
