12
0
N -1.8551912121 0.1571763364 -0.0226062195
C -0.4831826707 0.0201910068 0.0369071321
C 0.2275283748 1.3188156303 0.203142249
N 1.3982549126 1.6284773148 -0.145303478
C 2.5862633214 -1.6352976011 0.358453046
N 1.4559553736 -1.3798840837 0.2182906492
C 0.105840669 -1.1864735489 0.0325490876
H -2.2017673172 1.0042388949 -0.4397128208
H -2.38794323 -0.658461181 -0.2720647551
H -0.3848664987 2.0935862941 0.6735947106
H 1.8910710997 0.8487248905 -0.5769769319
H -0.4693498225 -2.096333953 -0.0826566696
