18
0
C 2.2700561754 -0.2659311633 0.3422649286
C 1.3825764746 0.9059826741 0.6128374996
C 1.5198537248 2.1076700097 0.0698659272
C -1.6574395644 -1.4364218998 -0.4219632035
C -2.8693484744 -1.1418192798 0.4186468463
C -1.1260775308 -0.5759832482 -1.2493006497
N -0.688850533 0.1990595502 -2.0844108065
H 1.6926033324 -1.1015603531 -0.0615957832
H 2.7351805003 -0.6211502469 1.2651844857
H 3.0588476516 -0.0163034817 -0.3684116046
H 0.5633002087 0.7342751677 1.3072222855
H 0.0325382232 0.8260462308 -1.7266513673
H 2.3240903529 2.3271654672 -0.6255813702
H 0.8400546357 2.9169269564 0.3076521882
H -1.184843247 -2.4097544463 -0.3572405672
H -3.6809920398 -1.8361031023 0.1899020828
H -2.6444393751 -1.2376157874 1.4834216215
H -3.2331105151 -0.1300090474 0.2409444867
