14
0
O 1.9815404069 2.2805436879 1.5667947635
C 1.9140385615 2.1739358465 0.3756749133
C 1.0525315587 1.1842264111 -0.3473130192
C -0.4678319873 -0.5454129711 -0.4297876498
C -0.6659254599 -1.8913101881 0.21788689
C -1.788048989 -0.9141928957 0.1952346701
N 0.3243564821 0.3737009178 0.2882747481
H 2.5132180697 2.8280650041 -0.291532921
H 1.0988310901 1.211383298 -1.4442657455
H -0.416584671 -0.5100369213 -1.5171416445
H -0.1497791125 -2.0455377676 1.1550444317
H -0.7072471945 -2.7500567778 -0.4384350857
H -2.036107572 -0.4073614313 1.117285213
H -2.615822183 -1.0867262124 -0.4791405639
