13
0
C 1.571357206 -0.2529572395 0.0514660963
C 0.212089707 0.2918447568 -0.3051453776
C -0.9704364937 -0.6559615823 -0.3082491231
C -1.9200036741 0.3092999507 0.4100828111
O -0.2641153055 1.2725863203 0.6747771772
H 2.3057011272 0.5502908487 0.1337596693
H 1.5355029765 -0.7995442205 0.9976370806
H 1.9036104279 -0.9490401617 -0.7205952438
H 0.256246666 0.8654874364 -1.2318395136
H -1.280764262 -0.9546748919 -1.3130666129
H -0.7771759392 -1.5590609031 0.2785586297
H -0.1015576798 0.9416989985 1.5636379272
H -2.2569477564 1.0373286877 -0.3464555207
