14
0
N 0.9991143124 -2.2255349851 -0.1642707214
C 1.7071418891 -1.0695941789 -0.0903437086
O 2.780050704 -0.592797583 -0.2862122628
C -0.6767149947 2.2135133373 -1.0900352754
C -1.000348837 1.1084515877 -0.4395524709
C -0.6073664684 -0.2760920331 -0.8633018799
C 0.2713649049 -0.9467127177 0.1701558999
H 0.8597172804 -2.72100878 -1.0352731133
H -0.0876537785 2.1850674011 -2.0005382547
H -0.987275991 3.1883397762 -0.7352149865
H -1.5855996661 1.179219766 0.4744005983
H -0.0890842271 -0.2390431751 -1.8252403816
H -1.5077767829 -0.8867866532 -0.9985375528
H -0.1185253451 -0.9520187625 1.1839631096
