16
0
C 1.6817220893 1.1615776916 0.5820761879
C 0.9384189564 -0.0668435059 0.0826425312
C -0.4382767142 -0.2295759251 0.7166501574
C -1.2563586033 -1.3947712159 0.2726643574
C -0.529457488 0.1003689749 -1.5942561886
C -1.4195584196 -0.0622081846 -0.4160734674
N 0.7168694355 0.0498500085 -1.3682991581
H 2.6152160953 1.2876495144 0.0334612372
H 1.9101151184 1.0681985001 1.6458607559
H 1.558398958 -0.9532790376 0.2498647952
H -0.6281564863 0.2041097948 1.6899124685
H -0.773411077 -2.1935585929 -0.2783220494
H -2.0637462538 -1.7107361921 0.9202819411
H -0.9034958419 0.2297356873 -2.6073685891
H 1.0750738575 2.0582132158 0.435413554
H -2.3561296261 0.4735072664 -0.3422575332
