16
0
C 1.6164765837 0.9289645997 0.2637747224
C 0.2445403171 0.3397204612 0.2221696838
C -0.1087029392 -1.0048702192 0.8298504303
C -1.0559378896 1.0925158297 -0.0242155179
N -1.532354794 -0.0026194213 -0.9100007234
C -0.3259634938 -0.7569863876 -0.6294359005
O 0.288456075 -1.4878784098 -1.6146977663
H 2.3713998672 0.1566584411 0.1053223662
H 1.8169752795 1.4043410305 1.2270290226
H 1.7417415999 1.6800462389 -0.5189151354
H 0.7519585129 -1.6198270511 1.0668458922
H 0.0690578403 -2.4146678347 -1.501482972
H -0.9480100661 -1.1014811413 1.5136242747
H -1.6725697972 1.2782692578 0.8604394201
H -0.928145762 2.0250180679 -0.5780837236
H -2.3894533333 -0.452253462 -0.6074820732
