19
0
C 2.5220735088 0.4317939831 -0.3861714194
C 1.3476183187 -0.3064406568 -1.0158844513
C 0.1447793551 -0.4512192814 -0.0941948417
C -0.5060446551 0.8302026631 0.4617497972
C -1.8165556308 0.3080347258 1.0444073257
C -2.1386653452 -0.8637000935 0.1051647064
C -0.8992815664 -1.4229676762 -0.4721911716
H 3.3713690817 0.4735307167 -1.0701328999
H 2.8574615424 -0.0669968472 0.5270980641
H 2.2614093603 1.4599654401 -0.1254284098
H 1.0239354443 0.2195759216 -1.919850224
H 1.6510442007 -1.3050975577 -1.3364041777
H 0.4574867688 -1.0649981099 0.7888043401
H -0.6967927402 1.5248921124 -0.3640002225
H 0.1153559554 1.3528319875 1.18937374
H -2.607305423 1.0574434152 1.0928243985
H -2.8687846302 -1.5980052045 0.4473369013
H -2.5543647277 -0.4716647365 -0.8467771081
H -1.6593658179 -0.065912802 2.0606826529
