15
0
O 2.0111957229 -1.2578514366 0.4610830808
C 1.0261647509 -0.2701314064 0.436373218
C 1.0783656675 0.791348939 -0.6712946056
C -1.3891241622 1.2472103731 0.209083655
C -1.5888961149 -0.2196966385 0.6371402081
C -0.3607001634 -0.639630688 -0.1210002021
O -0.2953290249 0.5194096246 -1.0530801782
H 2.1143138707 -1.6337174337 -0.4164484589
H 0.9752836806 0.1534445731 1.4366923076
H 1.1916521038 1.8294776346 -0.3696160213
H 1.7473569768 0.5371754581 -1.4982680592
H -2.1885136436 1.5309925276 -0.4881050214
H -1.5020661224 -0.3735241717 1.7150879014
H -2.4843068719 -0.7348177173 0.27495053
H -0.3812306698 -1.588553638 -0.6625193544
