12
0
C -1.5417734066 0.413196882 -0.2573463428
C -0.1420694376 -0.0391596812 0.0303636027
C 0.1751999404 -1.3271611047 0.0721088339
C 1.049176547 -2.2555077807 0.2330446726
O 1.7149712274 -3.2042519029 0.3493361512
C 0.8574942415 1.0573124727 0.2597431984
H -1.5545474021 1.0397209512 -1.1540195947
H -2.2114417595 -0.4305859927 -0.4019302366
H -1.9131016694 1.033246519 0.5636322902
H 0.8964508586 1.7141451039 -0.6139888396
H 1.8518247 0.6637502208 0.4556459773
H 0.5439521603 1.6777063123 1.1042952875
