12
0
O -0.4665651729 2.4290253135 -0.3679618176
C 0.0247039811 -0.8298759571 0.1887657475
C -1.0607644631 -1.0617644203 -0.8291543477
C -1.0289083536 -1.4395316802 0.6173319637
C 1.2868474792 -0.2651192428 0.4026744216
C 2.3622176501 0.247129711 0.550979217
H 0.3221403888 2.009555048 -0.7190718175
H -1.6610714463 -0.2123656852 -1.1483469041
H -0.9148210851 -1.8301341643 -1.5860563007
H -0.4530773343 2.2113639853 0.5659091506
H -1.5557616439 -1.8981271843 1.435184799
H 3.3205869999 0.6890682766 0.6916888883
