12
0
C -1.6556441346 -0.2073385148 0.0319845048
C -0.1603356544 -0.1035913089 -0.039425311
C 0.5183945093 1.1858076556 0.0635577173
N 1.7833363261 1.2962136234 0.0642687479
C 1.3266073511 -2.0212187757 -0.5297594648
N 0.5646633613 -1.1440608557 -0.2093824952
H -2.0371885826 0.1811498693 0.9794278278
H -1.9704024343 -1.2453360766 -0.0607491333
H -2.1269711072 0.3623167067 -0.7733409739
H -0.1599946741 2.0439548533 0.1373868139
H 2.0614065596 2.2712323577 0.125020629
H 1.8134774798 -2.6344775341 0.2284301375
