10
0
O -1.1844492547 1.7191768889 0.2307673325
C -0.3501100908 0.8545814409 0.0963586031
C -0.8158515539 -0.6011472932 0.0073156434
N 0.2202525367 -1.5580897546 -0.1381927749
C 1.0845611681 -2.3281031724 -0.2587192883
N 0.9757227479 1.0747948452 0.0172178204
H -1.3843288152 -0.8157432065 0.912136978
H -1.4960068239 -0.6726202354 -0.8414502203
H 1.6352116701 0.3270982779 -0.0955927588
H 1.3035824159 2.022404209 0.0729366649
