11
0
O 0.521430925 -0.4256957862 1.3755777158
C -0.4066406144 -0.2022248182 0.6517167228
C -0.8631783049 0.2010380301 -0.6725099421
C -1.8515122453 -0.1473199848 0.4848084783
C 3.63981483 0.3004698135 -0.9538554109
N 2.816975203 0.0570865187 -0.1712026632
H 2.07154133 -0.1500525612 0.4915133168
H -0.7643287709 1.241978555 -0.9574621498
H -0.7671740517 -0.5059680262 -1.4881606467
H -2.3922332867 0.6697727437 0.9478232107
H -2.3988860139 -1.0802574843 0.4184793682
