11
0
C 1.2962082678 -0.7637909024 0.6162999179
C 1.9245894831 0.0543317319 -0.3075428727
C 1.0468686286 0.9098961885 -0.6881609428
C -0.0187947226 1.6884392889 -0.7585333404
C -1.072495398 0.9253007637 -0.3686264836
C -0.9369565663 -0.5840774697 -0.2776275421
O 0.00991472 -0.992490468 0.7508681581
H 1.8287086796 -1.2462923802 1.433427903
H -2.0287060669 1.3495068222 -0.069409898
H -0.5768150348 -0.9977224796 -1.2241390822
H -1.8581719904 -1.0802990954 0.0181531827
