13
0
C -0.8777101507 0.9252935131 -0.1476448554
C -1.0198699212 -0.6048920973 -0.2768169983
C 0.3866209885 -1.1465549091 -0.1296760361
C 1.2782217832 0.0942312953 0.0772918116
N 0.4084186657 1.1850156177 0.4654911911
C -0.6663582388 -1.5051846623 0.8233427243
H -1.6845858507 1.3651780782 0.440477911
H -0.9197106515 1.3543151409 -1.1524868033
H -1.8262968466 -0.9473301904 -0.9194346011
H 0.8588618204 -1.9836826467 -0.636510324
H 2.0488907989 -0.0750398376 0.8307972437
H 1.77514974 0.3146100037 -0.8714397192
H 0.3044018628 1.1874266944 1.470899456
