12
0
N 2.1622253309 0.0987381556 0.2972034453
C 0.9054337171 0.2510104965 0.126530003
C -0.0989559961 1.2151167781 0.0056267194
C -1.3494137012 0.5773739722 -0.177569119
C -1.263736968 -0.7711636601 -0.1896647753
N 0.1583940897 -1.0884156672 -0.001929645
H 0.5770380589 -1.5890165515 -0.7824261423
H 2.6272213121 0.9948527084 0.3775397251
H 0.0748318112 2.2766579574 0.0503813959
H -2.2871340419 1.1041655239 -0.2953484486
H -1.9802832249 -1.5627545609 -0.3096787758
H 0.3555526123 -1.6223431525 0.8413406173
