11
0
N 1.7523339903 -0.3485280034 0.4524502468
C 2.3177853297 -0.7224650337 1.3998623506
C 1.0164989747 0.1031672637 -0.6831903159
O -0.1514394988 -0.6335760565 -0.8711794307
C -1.114592052 -0.4925406375 0.1436099472
C -1.6367935042 0.8823713325 0.228050452
N -2.016733891 1.9623834819 0.2857354346
H 1.6207595759 -0.0421063243 -1.5761754703
H 0.8077982681 1.169465912 -0.5462034319
H -1.9302605201 -1.1690386054 -0.1065092367
H -0.7161056725 -0.7778303292 1.1230284541
