10
0
C -1.4087564069 -0.7203054499 -0.1348491001
C 0.1705891435 1.121668502 0.52243832
C 1.5234666225 1.1164972354 0.3306943406
O 1.9502610816 -0.0266597902 -0.2730349058
N 0.9117336551 -0.792282846 -0.4924617956
N -0.0917015718 -0.1159603618 -0.0298299169
H -1.3149965525 -1.6984322228 -0.6003849606
H -1.8290635961 -0.8066665945 0.8642220728
H -2.0406370211 -0.0689091879 -0.7338592167
H 2.3102556456 1.8173147157 0.5534251624
