10
0
N 2.1925114544 0.2448589201 -0.2646759268
C 1.0168308807 -0.4161776017 -0.2128692328
N 0.0821655543 0.29982776 0.6170709253
C -1.116742232 0.1903309994 0.4187247576
C -2.4058781156 0.1265487963 0.269469504
O 0.7805362642 -1.4626480682 -0.7550079581
H 2.3353353803 1.06555513 0.2921726402
H 2.9547141795 -0.1672017249 -0.7692556477
H -2.9200179597 0.8456459148 -0.3515474502
H -2.960442406 -0.6658391257 0.7514813884
