15
0
O 1.5347362569 0.2521318797 -1.4395851233
C 0.7551834427 0.3844967952 1.4087212666
C 0.6464317537 -1.0223718498 0.880435623
C -0.3545047567 -0.8510418397 -0.2651094354
C -1.321360827 0.1395147867 0.4140871157
C -0.0630594092 1.0928116121 0.4027057922
C 0.2274201859 0.374387473 -0.9638348663
H 1.8266473759 1.094541629 -1.7913677529
H 0.3352777124 -1.7097560412 1.6714477678
H 1.6486234331 -1.3360190208 0.5689879777
H -0.6958187183 -1.7192755989 -0.8240446857
H -2.1072667854 0.5329832438 -0.2309033414
H -1.7301265937 -0.1412706613 1.384063995
H -0.1728826431 2.1722971713 0.4751488471
H -0.4473404274 0.7632274208 -1.7346701801
