16
0
C -1.1415057892 1.3013277682 -0.9570044177
C -1.5799179614 0.2949958023 -0.2144790824
C -1.8211068721 -1.097212426 -0.7011481988
C 1.5376441463 -0.7166744591 0.3742867913
C 2.328179949 0.5155021019 0.6873405905
O 1.1093039369 -1.4798744955 1.1974049591
H 1.8131092257 1.383036866 0.2674452963
H -0.9939122664 2.2906480187 -0.5402581722
H -0.9264750045 1.1737254091 -2.0135137333
H -1.7813907559 0.4725368012 0.8394358093
H -2.8651762102 -1.382623451 -0.5494490945
H -1.2104881553 -1.8088348766 -0.139453647
H -1.5900183758 -1.1961685359 -1.7630673483
H 1.3566668689 -0.9010980993 -0.7048020937
H 3.3041633405 0.4551953689 0.1985054271
H 2.4534269234 0.6335592075 1.7619239146
