16
0
O -2.2399172587 0.0539848275 0.679022579
C -1.1308245555 0.0979662092 -0.2180841845
C -0.3233906907 -1.1755447336 -0.1764685686
C 0.8020557913 -1.0221310785 0.5068779597
C 0.9784195008 0.3844661158 1.0062651145
C -0.1394638367 1.1548159786 0.2809084877
H -2.7815700769 -0.7071042988 0.4619496079
H -1.4956544806 0.3301350347 -1.2260181771
H -0.673682611 -2.1063113327 -0.6084467171
H 1.5482930454 -0.0983969362 -2.2772146818
H 1.5136837418 -1.812348733 0.7161064909
H 0.8685145368 0.4161172245 2.0945489554
H 1.9699805887 0.782885263 0.7789881498
H 1.8545580793 0.2328918393 -2.8715274495
H -0.6495974263 1.8806033254 0.913149591
H 0.2767796525 1.6891822948 -0.5745341573
