14
0
C 1.1155956579 0.7163439654 1.4818042546
C 0.264414837 0.3794791895 0.3077285705
C -0.9362539731 -0.8050937645 -1.3419088812
C -0.3085316788 -0.9939699976 0.0467473506
C -0.1866018911 1.1896484122 -0.6392188302
O -0.9821072172 0.6115132414 -1.5829761195
H 0.6001353257 0.4895394323 2.4200642423
H 2.0443159836 0.1384847836 1.4801384442
H 1.3785610431 1.7748582784 1.4903406625
H -1.9503085805 -1.194848873 -1.4256039056
H -0.320086332 -1.2574252923 -2.124276816
H 0.4523530638 -1.778064176 0.0450978809
H -1.047585716 -1.2615434864 0.809875783
H -0.0295915224 2.2519832867 -0.766861636
