15
0
O 2.4510956333 0.3074562058 0.3031887979
C 1.4023011102 -0.441565305 -0.2836789744
C 0.1224568959 -0.105225516 0.4435367153
C -0.4927378064 1.2995181134 0.1507360014
C -1.6797397982 0.561081884 -0.4370967617
C -1.1417644888 -0.6298506256 -0.1706674367
O -1.4697101002 -1.9241373009 -0.3324020247
H 3.2671489816 0.1114933757 -0.1581519113
H 1.5968613169 -1.5189702323 -0.2052307266
H 1.2868596591 -0.1962339346 -1.3487171251
H 0.2331431133 -0.3214003791 1.5093258367
H -0.6949099047 1.8914777881 1.0450432317
H 0.0988670443 1.8973553413 -0.5455525387
H -2.3293148267 -1.9862953548 -0.7569288378
H -2.6092778294 0.8924059398 -0.8801982462
