19
0
C 1.8729018119 -0.182972446 0.1749632739
C 1.0067060776 0.0379145999 1.4058886071
C -0.8752971839 0.4833530815 -1.3573669802
C -0.9811735447 -0.9203319998 -1.7947147002
C -0.4857595503 -0.1736103585 1.158227935
C -1.0245794645 0.7384446677 0.0541418625
O -0.8024232731 2.0729720875 0.4309273028
H 1.6058301569 0.5120780546 -0.6283688897
H 1.7716902234 -1.2011489075 -0.2106174088
H 2.9274079339 -0.0185044479 0.4017939636
H 1.1592287825 1.05124023 1.7809696131
H 1.3175924022 -0.6441064465 2.2021863694
H -1.5579826307 -1.0022231149 -2.7175620625
H 0.0487408324 -1.1618818441 -2.0942796405
H -1.3100053375 -1.6733510448 -1.0683855439
H -1.0384747392 0.0374050898 2.0758801299
H -0.6858076725 -1.2161674703 0.8988921434
H -2.1396499307 0.5531072681 -0.0433147624
H -0.7585098933 2.5700020011 -0.3929882122
