17
0
C 2.3182384165 -0.0936776805 0.0364983297
C 1.1258046833 0.7673439187 0.4318282733
C -0.1168147405 -0.056451783 0.6968026043
O -1.1560856812 0.8063507979 1.2143991805
C -2.3130107919 0.4496801097 0.6021905089
C -2.1880446604 -0.4412237363 -0.3696477663
C -0.7255070695 -0.7627194364 -0.5316174079
H 2.1299300405 -0.6424376301 -0.889138596
H 2.5503811052 -0.8256083353 0.8140865492
H 3.2075842686 0.5181284693 -0.1186366621
H 0.8993998464 1.4942642299 -0.3539970724
H 1.3581045435 1.340004779 1.3332105184
H 0.0896719373 -0.7921401474 1.483672871
H -3.1975669267 0.9457764659 0.9761965071
H -2.9901663175 -0.8237504012 -0.9804303716
H -0.3274419369 -0.3575865013 -1.4695882357
H -0.5134047166 -1.8331681191 -0.5262542305
