14
0
O 1.7441340179 1.3442317778 2.010287255
C 0.6292320718 -0.1519729329 -0.4685808282
C 0.4747145763 0.430924425 -1.6202174616
C -0.6156032972 0.6646498053 -0.6073066251
C -1.3919799071 -0.6244591388 -0.2480387186
C -0.0319731477 -1.285281482 0.2534212143
H 2.1365973473 1.1331355586 1.1594534742
H 0.8706076211 1.6736836379 1.7904922798
H 0.6707889146 0.3007225434 -2.6748478255
H -0.7987778539 1.6188956459 -0.125595749
H -2.1519505731 -0.5178387909 0.5269981742
H -1.8170898527 -1.1549249966 -1.104003346
H 0.048195786 -1.1962214692 1.3359665222
H 0.2286912967 -2.2971655836 -0.0598443658
