16
0
C 2.3677425649 -0.1823103845 0.367369057
C 1.1885094516 0.1948192363 -0.5222134755
C 0.011041566 -0.7242447315 -0.4258043118
C -1.06065133 -0.0070135197 -0.0755308529
C -2.469088298 -0.4423339484 0.154437047
C -0.5686890877 1.3766536141 0.0546450231
N 0.6770632942 1.518321599 -0.1832348193
H 2.0543244565 -0.2228449282 1.4119838309
H 2.7647939926 -1.1590956849 0.0861260722
H 3.1597594696 0.5597319848 0.2714923972
H 0.0482494677 -1.7902338176 -0.610331679
H -2.7918383896 -0.2040215527 1.1708348986
H -2.5792911572 -1.5166411399 0.0071376373
H -3.1537772246 0.0659042673 -0.5287560489
H -1.1905395163 2.2258481512 0.329274347
H 1.53472374 0.2469118544 -1.562931123
