13
0
C -1.9809088333 -0.7634210316 0.7683554593
C -0.6160585429 -0.4493456864 0.2663626105
N -0.1300017967 0.7660857453 0.3233120259
C 1.0610636532 1.2747983343 -0.0706513597
C 2.0121888272 0.4357698966 -0.6514499359
C 2.7972190482 -0.3361762944 -1.1475787518
H -2.46073671 0.1199709843 1.197791902
H -2.631627308 -1.134409109 -0.0292860093
H -1.9563485355 -1.5326823715 1.5455418779
H 0.0226796206 -1.2057593528 -0.1673798575
H -0.7485907973 1.4542642328 0.7331764658
H 1.2183726402 2.3263427384 0.0958026111
H 3.5028077345 -0.9993300861 -1.5871180382
