14
0
C -0.5426598904 2.2307793079 -1.5369769209
C -0.2036462484 -2.6393285816 1.4043793307
N -0.1891738615 -1.3738817564 1.5516443962
C 0.3302978528 -0.4131199422 0.5096363996
N 1.498778142 -0.7552439137 0.1757775718
C 0.7454532564 1.9715587779 -2.161545876
N 1.7642184861 1.7479067372 -2.6398946851
H -1.338424031 2.1277710994 -2.274104982
H -0.5599061678 3.2402346956 -1.1273891283
H -0.6857465931 1.5025797994 -0.7325161349
H 0.3890142555 -3.0494935034 0.594985611
H -0.8078441156 -3.2720128371 2.0431953288
H -0.7581586132 -0.954070335 2.2756088686
H 1.8236165283 -0.172117548 -0.5922687796
