11
0
C -2.1781264908 -0.4503838244 -0.9360163012
N -0.9650977668 -0.1995577979 -1.1690211773
C 0.3636859293 0.0175115722 1.4284724505
O -0.6613225303 -0.1644370863 1.9448546429
C 1.5611696168 0.0238691284 0.9383086455
C 2.5768149523 0.6861374866 0.4297882194
H -2.9220300065 -0.6721242172 -1.707151476
H 2.5422530846 1.7596082117 0.2530412272
H -2.5236283587 -0.450952422 0.0981793376
H -0.7589944926 -0.230805902 -2.165895615
H 3.5022220625 0.1854018506 0.1572500465
