11
0
C -1.672579257 -0.7103171973 0.4757019256
C -0.7201615525 0.1696643503 -0.2038922217
C 0.6345303518 -0.3288297101 -0.1360187572
O 1.6010277954 0.37242794 -0.966883593
C 1.7044180183 1.634208143 -0.7438536702
N 1.8529186372 2.7599805118 -0.5516772607
H -2.1300716729 -1.214439235 -0.394136669
H -1.2925432531 -1.4830308926 1.1570344218
H -2.4993658223 -0.1570931128 0.9220730158
H 0.950425422 -0.239711816 0.9165627516
H 0.743647333 -1.3783019813 -0.428924943
