12
0
C -1.0826149277 0.4559204903 0.8094780205
C -0.7035109385 -0.3220208586 -0.4106857883
N -1.2556301098 -0.3799635739 -1.5306859311
N 1.851700599 0.5656716743 -0.2653754204
C 1.6093533631 -0.6609179859 -0.1395446613
O 0.3759063395 -1.1838216373 -0.2108449128
H -1.9736445129 1.0529234884 0.6246046389
H -0.2613739784 1.1130601256 1.093884617
H -1.2750262233 -0.2324825606 1.6343675879
H -2.0662279293 0.2310838098 -1.558740067
H 2.8457769074 0.7443407114 -0.1867369846
H 2.3308014112 -1.4602206835 0.0327299013
