15
0
C -1.924641815 -0.3621531889 -0.2676908001
N -0.6272106607 -0.2413171354 -0.3276743427
C 0.3979525174 -1.165717023 0.1982778169
C 1.4646594857 -0.249225299 -0.4636855094
O 2.4624317022 0.2858783267 0.3723114307
C 0.2946351952 0.6052054956 -0.8212209669
H -2.3354742293 -1.2042264225 0.264871011
H -1.3636568239 1.927404822 1.4962285035
H -2.5476290676 0.3602144576 -0.7709242811
H 0.2799570231 -2.1733249748 -0.2003269361
H 0.4205824039 -1.1733673066 1.2875887386
H 2.0029377999 -0.7392020947 -1.2794759895
H 2.0484394821 0.9695927924 0.906209028
H -0.7094317056 1.9963992382 1.1355501459
H 0.1052206924 1.4294393127 -1.4918998487
