12
0
N -1.1017477885 -0.3152555752 -0.825739997
C -0.6698345923 0.7124565268 0.1328930157
C 0.8518788336 0.5608961369 0.191351869
O 1.3632258922 0.9232770053 1.4472314225
C 1.0983534107 -0.8937087601 -0.1722628508
N 0.005045208 -1.2422661715 -0.7588241694
H -1.0928129027 0.0752797484 -1.7641444995
H -0.1948102159 -2.1664923033 -1.1083550665
H -1.0132736543 1.6941169983 -0.1884046623
H -1.0887443903 0.4904518752 1.1168812685
H 1.3328386356 1.1540499914 -0.6061974191
H 2.101999564 0.3361415278 1.6279200886
