19
0
C -1.8046022279 -0.8348161946 0.1428165421
C -0.8359754525 0.3331565755 0.05730737
C -0.1565782307 0.7034259106 1.3891622334
C 1.1289608907 1.3432858354 0.9397730886
C 0.8703609646 -1.2354946989 -1.1206716682
C 1.3833805825 1.0822159417 -0.3351253647
C 0.3343870802 0.1875114539 -0.9516703633
H -1.3109286962 -1.7453568423 0.4898891116
H -2.6125657772 -0.61305062 0.8436426386
H -2.2595094737 -1.0489112489 -0.8273372753
H -1.3978586135 1.2176796918 -0.2606258726
H -0.7784101204 1.362733948 1.9997421037
H 0.047790856 -0.1852419476 1.9998804245
H 1.7711121365 1.9159882528 1.598067315
H 0.1281169601 -1.8957192427 -1.5738666877
H 1.1658490691 -1.6616268784 -0.158631738
H 1.7534401142 -1.2372454247 -1.7632152845
H 2.2687957077 1.4034355085 -0.8719188269
H 0.0256592306 0.55287998 -1.9364697464
