15
0
O 0.5305155782 -2.3157166412 1.081961776
C 0.4050756587 -1.3106384047 0.4173986641
C -0.9126849724 -0.9931189256 -0.2672664856
C -1.0020561413 0.324800891 -0.9593355665
C 0.0440446182 1.1453714554 -1.0465526159
C 1.3245171232 0.7836082103 -0.4524335978
C 1.5065020758 -0.3561639198 0.2264389995
H -1.0979652332 -1.7998862889 -0.9866828728
H -1.7067581634 -1.0988243845 0.4779808609
H -1.9527161135 0.596088228 -1.4053881188
H -0.8625469429 0.8636799538 2.5371841745
H -0.0369480067 2.0942016338 -1.5622844634
H -0.8668551643 1.2293885713 1.8871806803
H 2.1506922538 1.4774333905 -0.5663792975
H 2.4559444297 -0.6153617691 0.678252863
