13
0
O 1.4077090706 1.793220003 0.5271091563
C 0.8285291886 0.6504240836 0.08052233
C 1.3510931901 -0.5509737169 -0.1635333407
O 0.4371578439 -1.446271395 -0.6759901911
C -0.8081246586 -0.7956756274 -0.67354544
C -1.3970601227 -0.3736549332 0.6297282702
C -0.6216584182 0.6259258573 -0.2015608088
H 2.3533624526 -0.9277046949 -0.029210047
H 2.3620036374 1.694293653 0.5216643816
H -1.4409570927 -1.0920673549 -1.4982202743
H -0.9457025137 -0.724150821 1.5485874019
H -2.4738799521 -0.2698273813 0.6454006026
H -1.1046186251 1.4895683278 -0.6392700406
