14
0
C 1.6085242618 -0.3780124475 0.6048170118
C 0.1513805658 0.0163465063 0.7201465178
O 0.0610348937 1.4257655004 0.7446974112
C -0.707972178 -0.4793810486 -0.4313845776
C -1.9251751629 0.2922482288 -0.7134432904
O -0.4888020083 0.3187163146 -1.6410568005
H 2.0422178171 0.0005267899 -0.323058349
H 2.1741375288 0.0378467808 1.438071054
H 1.7147152316 -1.4642126091 0.6198877422
H -0.2774379988 -0.412978924 1.6367193014
H -0.0872788474 1.1477259388 -1.3265347784
H -0.5909922885 -1.535323599 -0.6721155585
H -0.8872970633 1.6174943939 0.6104825076
H -2.5617927521 -0.2894758252 -1.3878951914
