15
0
C -2.1454994495 -0.724947238 0.8903374161
C 0.548780153 0.1406202512 -1.727414721
C 1.138077427 1.1741652791 -0.8393406573
C 0.2785061562 2.0365296428 -0.0441147332
N -0.374040535 2.7342329694 0.590602919
N 1.099095394 -0.2544599056 -0.5888035871
C 1.5225565603 -1.0889602048 0.2946656248
H -2.125619171 0.273666347 1.3239507406
H -1.7598398449 -0.6794286716 -0.1284677021
H -3.1693529975 -1.096006311 0.8746449169
H 0.8104529029 -0.1841936013 -2.7215760773
H 2.1478613176 1.5678902741 -0.9613515626
H -1.5283137734 -1.3930425145 1.4901375829
H 1.8888543746 -0.7048111066 1.2335204925
H 1.4475584859 -2.1464862105 0.0891983481
