10
0
C 0.6643514314 0.9894444936 0.4618068028
C 1.0290689239 0.0063651545 -0.4293529973
N 0.1444506967 -0.9398899519 -0.7450054428
N -1.0802454157 -1.0183604861 -0.2642688973
C -1.4102306115 -0.0683417263 0.5873133898
C -0.6134477142 1.0255756269 1.0480511144
H 1.4083918771 1.7458066852 0.6966915991
H 1.9949416173 -0.0738965122 -0.9152873146
H -2.4289716917 -0.189294491 0.9456399002
H 0.3808658865 -1.6718017926 -1.3962111544
