14
0
N 1.2838495131 0.4422098979 2.1319706898
C 1.8987053006 0.4184179152 0.9295226217
O 3.0345264095 0.797646048 0.7423809599
C 1.0661151429 -0.164515176 -0.2062812001
C -0.4023515101 -0.2191890452 0.0595546133
C -2.4580532968 -0.271923433 -1.0312083149
O -1.026258644 -0.1942875579 -1.0703509287
H 1.7772074215 0.8233570061 2.9185855393
H 0.3109588286 0.1893531257 2.1929579982
H 1.3724914235 -1.216993875 -0.2938650912
H 1.3446413828 0.3240799213 -1.1436796269
H -2.7820073217 -0.3572126824 0.0046487933
H -2.8508651727 0.6322440893 -1.4936073464
H -2.7574464773 -1.143622234 -1.6109867073
