17
0
C 1.8258672923 -0.2639308117 -1.4912738591
C 0.9148980852 1.6270993417 1.9373685739
C 0.0414256817 0.6616081975 1.6965214742
O -0.893222603 0.7453864086 0.7224307789
C -1.7282035415 -0.3921547561 0.5882090531
C -2.3840356941 -0.5940745676 -0.7063898326
C -1.4159130612 -1.408099259 -0.4368806693
H 2.7483738055 0.271670505 -1.7103782271
H 1.46628299 -0.7518064919 -2.3968125516
H 2.0206678112 -1.0113253059 -0.7226788571
H 0.9193716694 2.5419473421 1.3593907198
H 1.6418734557 1.503648266 2.7264327452
H 0.0327339399 -0.2631326201 2.27019815
H -2.2096934771 -0.6407735765 1.5336468295
H 1.074008196 0.4346732916 -1.1282501578
H -3.1382188955 -0.2401972134 -1.3871131798
H -0.7754746547 -2.2196317499 -0.7343429901
