16
0
C -2.2156385142 -0.5864252872 0.2405352653
C 0.4204364322 0.8729068659 -1.7581058901
O 0.4117613923 1.958753262 -1.2389198616
C 0.9918009658 -0.3900036635 -1.17651035
C 1.2925872347 -0.4954458586 0.3151346036
O 1.3921592855 -1.5902728088 0.8271077242
N 1.4758329468 0.6632404768 0.9791625432
H -1.5225585812 -1.3336371834 0.6253720468
H -2.4344453375 -0.7915494587 -0.8075295406
H -3.1424455149 -0.621546305 0.8105071767
H -0.0070555627 0.7488982018 -2.7724026468
H -1.7750652044 0.4059762462 0.33535799
H 0.3407262264 -1.2259465171 -1.438103038
H 1.9298482003 -0.5797668479 -1.7133689493
H 1.6324106037 0.6116040111 1.9702879247
H 1.2435544272 1.5387728665 0.537210002
