16
0
C -1.6480897065 -0.1116278296 -1.0397189125
C -0.5240837104 0.2337464254 -0.1059470772
O -0.5986149906 1.526743117 0.4428299211
C 0.0143696673 -0.8020188508 0.8457334115
C 0.8530797741 -0.3411728216 -0.3115059751
O 1.0452967442 -1.2963975859 -1.3074608179
N 1.9710407732 0.5298244631 -0.1666010597
H -2.6028868966 -0.0657430208 -0.5130489514
H -1.5160321661 -1.1109702414 -1.4507447223
H -1.6843334626 0.5893785063 -1.8798547643
H 1.4618274743 -0.8361112502 -2.0422828201
H -0.7234011848 2.1488381114 -0.2783428121
H 0.3009711629 -0.4532681604 1.8296207888
H -0.4197524439 -1.7928038206 0.8019302841
H 1.6902965917 1.3913686047 0.2815836325
H 2.7073903741 0.1012473533 0.3782888744
