13
0
C 1.7560439009 -0.3885771066 0.1380882316
C 0.404207191 -0.0959382475 -0.4533628103
N 0.3215148829 0.3261340346 -1.8984478072
C -0.1606757679 -0.7817061661 -1.5766999314
C -1.7661678606 0.225937259 0.5485221429
O -2.335947713 1.0259698898 1.4614302949
N -0.4910286124 0.5568579451 0.4563139947
H 2.4194696409 -0.805302734 -0.6176150161
H 1.6702535419 -1.0973706558 0.9641068563
H 2.2152508697 0.5264263189 0.5223875311
H -0.680814094 -1.6182368386 -2.0209404467
H -3.2589480623 0.7760325287 1.5197634751
H -0.1127609172 1.3134077724 1.0198554849
