10
0
O 2.2443094156 -0.5148932976 -0.8955679125
C 1.5469258056 -0.7403044326 0.0519170166
N 0.3044828533 -1.3704338899 -0.0360721004
C -0.8048707408 -0.7922134633 -0.1570154124
C -1.0107948186 0.6859254801 -0.1749978671
N -0.1228047428 1.4449469458 0.2979184091
H 1.8697578565 -0.5962225616 1.0969836665
H -1.6996728553 -1.4100618556 -0.246388887
H -1.9618411782 1.0336092728 -0.5902351854
H -0.3830295954 2.4260058018 0.2358932724
