8
0
O -1.6604369122 1.1848628514 0.1892688426
C -1.0118091453 0.0231123802 0.4928547974
C 0.2145467331 -0.2827782232 0.172154084
C 1.439048958 -0.5941679634 -0.1419099586
H -1.0653669885 1.75504696 -0.3042625873
H -1.6394815253 -0.6569660372 1.0551137065
H 1.6739926314 -1.1070554657 -1.0695980512
H 2.2697212487 -0.3563605022 0.5155861666
