12
0
O 0.8112449168 2.171202069 0.8470056498
C 0.4833464624 1.1156672422 0.363611233
N 1.2808460553 0.1012689998 -0.0512563736
C 0.5566271237 -0.9823478546 -0.6910541227
C -0.8995324396 -0.6313846824 -0.7042925147
O -1.2557000569 -0.2807435781 1.1698079098
C -0.9382079586 0.6257886465 0.0863659099
H 2.276234339 0.1312173216 0.0822128105
H 0.7239873996 -1.9537094811 -0.2193183913
H 0.8265294325 -1.0920285894 -1.7503521149
H -2.1668816816 -0.5732020977 1.0496453121
H -1.6770675925 1.4057550044 -0.073075308
