13
0
N -1.6563536764 0.501694479 -0.4837905172
C -0.6172318419 -0.1435754353 0.2790011671
C 0.0240137291 -1.2052790968 -0.6259646926
O -1.0979908742 -0.7459959615 1.4578629974
N 1.2759162309 -0.8217413444 -0.6908015456
C 1.6055288873 0.3572280215 0.0560857079
C 0.5125101379 0.790592208 0.6571442729
H -1.8285676529 0.0395078888 -1.3651826783
H -1.533568654 1.4936052606 -0.606383462
H -1.701334344 -1.4441029212 1.1861430295
H 1.9658815438 -1.320242381 -1.23001026
H 2.6147247934 0.7426488765 0.0582315537
H 0.420370721 1.6423294056 1.3132154273
