11
0
C -1.9219785229 0.3058774397 -0.3110605492
C -0.8033338479 -0.6728394041 -0.3659931926
O -0.7565779365 -1.7518304605 -0.8287856337
C 1.4896845144 -0.2573547727 -0.2432505527
O 0.3403200421 -0.1303054784 0.3361039864
C 2.5581169094 0.3411364537 0.5819737195
O 2.8486359974 1.5089113157 0.5115937318
H -2.1281112518 0.5634007587 0.7284336491
H -2.8038978554 -0.1190803819 -0.7808229884
H -1.6205566814 1.2222138226 -0.821140282
H 3.1555716325 -0.3906402929 1.1690161116
