14
0
C 1.681798639 0.6205880061 0.7439975279
C 0.5895416892 1.3784713063 0.1355687873
C -0.4706114287 -1.1945932783 -1.1444114028
C -1.2643804364 -0.280042594 -0.2559916306
O -1.045612293 -0.3199127978 1.1243061431
C -0.7363141219 0.927976005 0.4393807298
H 1.4678600509 -0.3898906787 1.1077564834
H 1.8423157599 1.249306771 1.6408226076
H 2.6166642714 0.6796212094 0.1865528529
H -0.5252176866 -0.8518849287 -2.1788101787
H 0.5749102708 -1.2576279995 -0.8503330746
H -0.9005757819 -2.1967716871 -1.0968655051
H -2.3137435544 -0.1951746572 -0.5390128916
H -1.4814933786 1.6992343233 0.6165205515
