14
0
O -1.1571298862 1.0692888161 -0.2533707021
C -1.4500430957 2.1653514811 0.489514825
N -0.7993147542 2.6897189575 1.4260417461
C -0.2379665808 -2.0718033911 0.1863265567
C 1.2672263832 -1.8385728919 0.0917373985
C 0.3156924761 -0.7334053919 0.0178121173
C 0.1173206732 0.549605528 -0.1454893918
H -2.4022697169 2.5756309982 0.1632342548
H 0.054062885 2.1806072885 1.6468274445
H -0.7337993976 -2.5301214005 -0.6610935258
H -0.6487448706 -2.3408044037 1.1522884575
H 1.8526357026 -1.9544138611 0.9962287656
H 1.7699710533 -2.1486217065 -0.8168243265
H 0.9213511285 1.2675939776 -0.2745676197
