10
0
O -1.8065764911 -0.0985040873 0.6245807811
C -0.5528254027 -0.0559258209 0.1088472127
C 0.4341998827 1.0933960824 0.0804477533
C 1.3963203588 0.1995883591 0.2785726053
N 0.5205830987 -0.9708708944 0.4542817862
N -0.186335728 -1.0113206579 -0.8908343171
H -1.805207194 0.3169768645 1.4908347571
H 0.3737461515 2.1446805543 -0.1550691443
H 2.4750522557 0.1625573298 0.2403671331
H -0.8325559314 -1.7967957296 -0.7898755673
