13
0
C 1.5739553356 1.1571405628 0.1090919551
N 0.3612193334 -0.8571276483 -0.4881114564
C 0.3867707501 0.5829928177 -0.6508497521
C -0.6123024018 -1.4787743071 0.0200637243
C -1.9067503566 -0.9379666301 0.5500215619
O -2.7451849585 -1.6797759774 0.9877269282
H 1.6636670999 2.2280828796 -0.0783678199
H 2.4968531934 0.6679032888 -0.2030434709
H 1.4554562248 1.0060772864 1.1835835367
H -0.5333476999 1.0938564177 -0.3516500843
H 0.5244560479 0.7629511121 -1.7203960917
H -0.5424369934 -2.5647320222 0.1088923778
H -2.072402575 0.1526502204 0.5359185914
