16
0
C 1.5219972199 -0.6266831857 0.0624892747
C 0.0559031916 -0.1914780673 0.0290599262
C -0.4619993657 -0.0110012466 -1.3768782811
C -0.8467125059 1.2529530117 -1.7211640501
C -0.8258537002 -1.1211788727 0.8651271629
C -0.5676144787 1.9302248674 -0.4795071486
N -0.0772946047 1.185670847 0.4901173557
H 1.9020611443 -0.6645903888 1.0864783356
H 1.6158107456 -1.6250722797 -0.3662561522
H 2.1388266628 0.0550777362 -0.5232593634
H -0.4964797849 -0.8872152333 -2.0219799002
H -1.8627818429 -0.7845027886 0.8505815616
H -0.4798398533 -1.1716048359 1.90060025
H -0.7887772173 -2.1292037644 0.4505510402
H -0.7238131972 2.9867131541 -0.2709989643
H 0.1687855866 1.5025950464 1.4134839532
