17
0
C 1.5737069871 -1.0931359735 -0.1521104033
C 0.2828789043 -0.3364133589 0.0048687749
C -1.0596026146 -1.0804316651 -0.1531652313
C -1.6628873028 -0.0379999783 -1.077404554
C -0.7705846615 1.5467742353 0.2067599434
C 0.1652003575 0.7271898929 1.1029253696
C -0.3550013102 0.6487948943 -1.0349406204
H 1.7271285508 -1.7742251069 0.6898247209
H 1.5760020864 -1.6889857554 -1.0681062958
H 2.428596915 -0.4139129944 -0.1911260832
H -1.618015387 -1.471665086 0.7009119535
H -0.9221730181 -1.9051700106 -0.8693517453
H -1.8341560281 1.4713555015 0.4592269333
H -0.5432721692 2.5976080536 0.0489228835
H -0.21033468 0.4084046839 2.0771171385
H 1.1166527439 1.2438923692 1.2411134415
H 0.1115626264 1.1732402981 -1.8651552259
