14
0
C 0.2328680391 -1.3768993068 -0.6563036974
C -1.0335827991 -0.615692095 -0.2034331983
C -0.1586473377 0.6058064567 0.1081555071
O 0.1921098155 0.6203455927 1.5165867745
C 0.1014980399 1.6663012266 2.2588149024
C 0.9761182847 -0.0230871095 -0.7113607042
H 0.1672623893 -1.9436603128 -1.5836408553
H 0.6214847529 -2.0261313026 0.1272406917
H -1.7167124162 -0.4062530154 -1.0268642097
H -1.5991069344 -1.0172956389 0.636211008
H -0.516688204 1.6056892508 -0.1485935289
H -0.2862472254 2.4989094129 1.605711123
H 1.0070268983 0.3977485829 -1.7167915948
H 1.969383697 0.0359782586 -0.2686352182
