14
0
C 1.1801312312 -0.2531668275 -0.5992040103
C -0.1005419889 -1.0394989881 -0.3391874104
C -1.2826546034 -0.0132476339 -0.4957370705
C -0.7034484711 -0.4772720738 0.8699904299
N 0.1896371596 0.5538336353 1.3429425239
C 0.6351049821 1.0446109836 0.028096231
C -0.5902075009 1.1720591677 -0.8925699219
H 1.4157281964 -0.1532589729 -1.6571547878
H 2.0426189345 -0.6434398743 -0.0578412732
H -0.2661963524 -2.0604895145 -0.6512462552
H -2.232774289 -0.3497421299 -0.8826725564
H -1.300436499 -1.0493088723 1.5642418722
H 1.3074512432 1.8943419763 0.0857170741
H -0.3239880422 1.2742961245 1.8372031546
