17
0
C -2.0949491742 -0.478811424 0.1224531621
C -1.2869005429 -0.7614468232 -1.0892787344
N -0.0330547702 0.9084202706 -1.4574230412
C 0.1531818116 -0.4498432405 -0.9185737817
C 0.8303547798 -0.4542157388 0.4388481061
C 2.1333535335 0.2061209603 0.6289295631
N 0.9318343149 0.7378711144 1.2724192945
H -3.1180055629 -0.1776270756 -0.1041092686
H -1.6667177117 0.1424949104 0.919856548
H -2.180705241 -1.499247796 0.534274206
H -0.2027937225 0.9013815567 -2.4523971199
H -0.7720286327 1.4274805974 -1.0000870603
H 0.7760955866 -0.9980985167 -1.6275760706
H 0.6381293812 -1.3587996855 1.0091216706
H 2.8695265187 -0.218930207 1.3003178288
H 2.5347041102 0.7539881643 -0.2175038782
H 0.6261613216 1.5505609333 0.7491165755
