17
0
C -2.2433335647 -0.1286298542 0.4818711138
C -1.2562437779 -0.9151917084 0.8797724346
C -0.1492998865 -1.3969539043 -0.0223000212
C 1.1625960013 -0.8156545711 0.4127017816
C 1.8180289813 0.2090235288 -0.1360739948
C 1.3921778481 0.9932216991 -1.3112909102
O 0.3276124644 0.9182979512 -1.8745922511
H -3.0149166743 0.1954009244 1.1698451629
H -2.3069208444 0.2194113258 -0.543181035
H -0.4129602813 2.2306646949 1.099484897
H -1.2093169907 -1.2344551719 1.9185599544
H -0.3705695483 -1.124827244 -1.0512441105
H -0.0816237162 -2.4875831046 0.046274828
H 1.6126638955 -1.2750387601 1.290221863
H 2.7636273643 0.5180762223 0.2978483231
H -0.0763111805 2.8954117191 1.1351794376
H 2.1528269099 1.7155142532 -1.6712744733
