19
0
C 1.4007006886 1.1679424002 0.0266275274
C 0.6473393128 -0.1564731321 0.0581825579
C 1.5552702607 -1.3424446248 -0.2498070384
C -0.5229682484 -0.1240892208 -0.9170830278
C -1.7407939098 -0.9590807738 -0.7595589239
C -1.7828896831 0.4937421455 -0.4592477403
O -1.8676667955 1.1203707794 2.2764688083
H 0.7291619462 2.0034782418 0.2316774459
H 2.2003218633 1.1798647511 0.769724047
H 1.8550090211 1.3351460891 -0.9541133532
H 0.2291942027 -0.2892138465 1.061525101
H 2.3690121149 -1.4080227175 0.4755272732
H 1.9989287655 -1.2444761724 -1.2445959009
H 1.0013654612 -2.2825733483 -0.2214276146
H -0.2501582703 0.1322103659 -1.9404142956
H -2.2776938851 -1.3000833417 -1.6383819393
H -1.8812015996 -1.5940867208 0.1120347468
H -2.1755104536 1.251857277 1.3638981582
H -1.2580597918 1.8428738485 2.4352671683
