12
0
N 2.4549230749 0.4359719763 -0.0777630215
C 1.0397583614 0.2989984974 0.1437492328
C 0.1793145745 -0.7144775792 0.0218451341
N -1.2023864822 -0.5242348584 0.2845944913
C -2.059120471 -0.0967493151 -0.6306783842
O -3.2692141409 -0.0369128435 -0.0431314686
N 1.4782278047 1.4983575581 0.3930766661
H 2.8021404342 0.534891801 -1.0219624514
H 3.1071693962 0.0873299258 0.6107857777
H 0.5276155589 -1.6765731213 -0.3252655689
H -1.5475874792 -0.739033064 1.2167492871
H -3.8838646317 0.2734840228 -0.7084476945
