15
0
C 1.8499026307 0.1398782602 0.2640343884
C 0.7228950595 -0.2295971421 -0.7043924369
C -0.624439071 0.0610380497 -0.1352216009
N -1.0240721884 1.2921999878 -0.1148207711
O -0.4027680509 2.3113088469 -0.5390179858
C -1.4992963171 -1.0041758519 0.4314420797
H 1.7988117731 1.2017555801 0.504964393
H 1.7811563415 -0.4330002503 1.1914424405
H 2.8230266012 -0.063655571 -0.184863891
H 0.8346490717 0.3558168665 -1.6206904513
H 0.77700684 -1.2886346282 -0.9667769499
H -1.9516586595 1.4618553212 0.2863584756
H -2.4332981229 -0.5975406618 0.8245110288
H -1.7454895665 -1.7489613925 -0.3295339974
H -0.9915213417 -1.5289374144 1.2452442783
