10
0
N 1.9869548401 -0.0837421298 0.4675455131
C 0.7312943351 0.1133827882 0.2536176797
C -0.1658318953 1.1360791909 -0.0835429635
O -1.4543711449 0.6201863812 -0.1548782823
C -1.4013630386 -0.6352672303 0.1150478543
N -0.1637734515 -0.9993859876 0.3623725128
H 2.5094415938 0.7758798922 0.3610831159
H 0.160259573 -1.9223059066 0.6001434956
H -0.0634829638 2.1823469786 -0.2912206799
H -2.2905488479 -1.2431529767 0.1192337543
