9
0
O -0.9914049677 -1.9072683955 0.5500191416
C 1.8467259734 0.4080274516 -0.2030544379
C 0.5553127463 0.4100979769 -0.1350940722
C -0.7505689767 0.3860832468 -0.0620240162
C -1.4934373385 -0.8446165592 0.2993539278
H 2.3524551648 0.1651992952 -1.1300851914
H 2.4492365496 0.6405165729 0.6670321835
H -1.3246780802 1.2831553109 -0.2688845488
H -2.5941740708 -0.7197878998 0.3255590136
