13
0
C 0.3862831745 0.4965784452 1.2892762859
O 0.6150605347 -0.8803674116 0.9858078764
C 0.4391526169 -0.9982418278 -0.4254734781
C -0.9983219623 -0.6649685039 -0.7987308682
O -0.9363525532 0.7963920299 -0.7559508272
C 0.2889567265 1.1423392073 -0.0782074493
C 0.9907861188 0.2613068906 -1.0679886756
H 1.2244657895 0.8910375475 1.8691372922
H -0.5365694433 0.6195922562 1.8643451402
H 0.8247383517 -1.95710622 -0.7565950978
H -1.7263876551 -1.035504388 -0.0736907146
H 0.4202460043 2.2173647747 -0.1427427674
H -1.275407703 -0.9633458001 -1.8079517166
