12
0
O 2.2529803216 0.6572036904 -1.6928151005
C 1.5849817251 0.0628316314 -0.8696517253
C 0.5843758986 0.6286961076 -0.0377302396
C -0.6407388134 1.4189197167 -0.2372069164
N -0.6250092749 0.0724869056 0.3287867289
C -1.3587263135 -0.8632660055 0.7661756969
O -0.8839709257 -2.0650116563 1.1007398405
H 1.776493697 -1.0179943073 -0.6643201193
H 0.0746961392 -2.0857442221 0.9996453184
H -1.118844304 1.4770824116 -1.2138024422
H -0.8945409834 2.2146469045 0.457820696
H -2.4218281667 -0.7313871765 0.9062982626
