16
0
C -1.1389114696 -1.1941227691 0.0478267283
C -0.4551791772 -0.0308414527 0.7029046189
C -0.9507346264 1.3232964367 0.2909297557
C 0.5382605327 -0.1891430234 1.5720337865
C 1.8400010675 -0.0125043269 -1.4441644446
O 1.0523816595 0.1619569123 -2.3302949012
H -1.0166844806 -1.1408155369 -1.0382062139
H -2.213450478 -1.1721772616 0.2490724846
H -0.7420138243 -2.1472743012 0.3974165332
H -0.8199580609 1.4606410527 -0.7866865962
H -0.4243903855 2.1247650933 0.8095528981
H -2.0199154419 1.4220302913 0.4976531242
H 0.8861416527 -1.1747329088 1.8609247896
H 1.0229613656 0.6616598393 2.0378206339
H 2.1298854609 -1.0253239473 -1.1090593307
H 2.3248472056 0.8298879024 -0.9176638665
