9
0
C -1.1154866161 0.2139842548 -0.0255876944
C 0.2344687748 -0.2619461721 -0.5047528126
C 0.4008247081 -0.7865578981 -1.6802541591
C 1.4152627668 -0.1254833665 0.4015799734
O 1.3098549914 0.3560733335 1.4955132001
H -1.0555110214 1.277070153 0.2058529818
H -1.3779364394 -0.3234597369 0.8852358902
H -1.8871442636 0.0504343218 -0.7755968509
H 2.3801990995 -0.4878118895 0.0171994717
