9
0
C -1.6389005196 0.6970238323 -0.53087488
C -0.6722817764 0.0173866558 -0.0053907477
C 0.3211623463 -0.6574943079 0.5132819058
C 1.7341989047 -0.3372809228 0.2004882861
O 2.0980699148 0.5429177877 -0.532248452
H -2.0266752152 1.5825229646 -0.041498866
H 0.1248587016 -1.4781120259 1.195234489
H -2.0746169453 0.3983699606 -1.4769735146
H 2.4709795891 -0.9904929442 0.7086587793
