12
0
O -2.2724644822 -0.5932250147 -0.4930649739
C -1.1013435809 -0.8197856218 0.242467703
C 0.1361092041 -0.3781400783 -0.5244528086
C 0.3934461326 1.0914489361 -0.6061794291
C 0.8946037289 2.2315312005 -0.4067866581
C 1.2959845716 0.0946360657 0.1973041673
N 2.2585194338 -0.1449214474 0.9275601996
H -2.4151689888 0.3537075124 -0.5656689452
H -1.1201650955 -0.3171940557 1.2157482766
H -1.0383918681 -1.8949998965 0.4138486476
H 0.3271423918 -0.9175946108 -1.4491834312
H 2.8133375528 0.6663760105 1.1806972519
