13
0
C -1.2315047768 -0.6718941166 -0.1101946035
C -0.0100601365 0.1927606705 0.0780541294
C 1.280994435 -0.5782907736 0.1815879296
C -0.0747480155 1.5187896221 0.7308783881
O 0.0202271129 1.2068740847 -1.0002714619
H -1.4429809389 -1.196571087 0.8236724318
H -2.09673903 -0.059457288 -0.3623668756
H -1.0820805422 -1.418670347 -0.8934116237
H 1.2567836946 -1.1881054911 1.0867509644
H 2.1267127876 0.1046429657 0.2739754944
H 1.4261451828 -1.2440594881 -0.6728471098
H -1.1407862746 1.7922416498 0.7726029276
H 0.9332735017 1.4829005986 -1.1334735908
