8
0
N -1.0163084098 0.9397884499 0.0746251619
C -0.0169427881 -2.2999357906 0.2876220965
N 0.5002491974 -1.2694535725 0.0994628782
C 1.0233084534 -0.0022338223 -0.1109105772
N 0.3038710426 1.0432478231 -0.0950491064
H -1.4400253622 1.8037175225 0.35991395
H -1.3817897029 0.0989405313 0.503821451
H 2.0849425697 0.0686688587 -0.2903488539
