13
0
O 1.5626462668 -0.1050847084 1.0904685872
C 1.1732616529 0.3296356758 -0.2002829943
C 0.0535281599 -0.5722106784 -0.6766134155
C -1.1791522271 -0.5199778311 0.2191975756
C -2.2143235882 1.8515803609 0.2246351128
N -1.7689569783 0.7775409445 0.2277554757
H 2.1494264863 0.5447074359 1.4779123685
H 2.0122317752 0.2665375563 -0.9033528433
H 0.8288686088 1.370394769 -0.1764780103
H 0.4102266037 -1.6050318812 -0.6928962974
H -0.2204426557 -0.2998929002 -1.6984561112
H -0.907985538 -0.7729053639 1.2445382098
H -1.9326845662 -1.2307653793 -0.1219436577
