11
0
O -1.3116040689 1.625892258 -0.412799308
C -1.74169759 0.5697245699 -0.6123816408
C -2.2339019256 -0.6180716428 -0.8425464789
N 0.8113545408 -0.6901478813 0.5565419806
C 1.8652687719 0.3135978497 0.1060681583
C 1.4769452761 -0.1091947253 1.431942654
H -1.6356126304 -1.47441938 -0.5716346227
H -3.2084253326 -0.7105790111 -1.2952825038
H 1.4938071019 1.2478360577 -0.3017785342
H 2.7523765149 -0.0978590405 -0.3638924995
H 1.557043342 -0.0757300543 2.5092907949
