12
0
C -1.7129557872 0.0822301497 0.0964774112
C -0.4079121025 -0.3716307394 -0.4859000058
C 0.7910274066 0.1321463949 -0.1766965134
O 1.0143837254 1.0811604242 0.7693392174
N 1.9870172012 -0.1797005637 -0.8036797262
H -2.1103202828 -0.6163325637 0.8397158656
H -1.6451955978 1.0630423439 0.578286663
H -2.472164389 0.1882460625 -0.6816174215
H -0.4358865867 -1.1584800348 -1.2298041802
H 0.1962371567 1.2422852494 1.2438458888
H 1.9459696699 -1.004269376 -1.377949461
H 2.7774295864 -0.1807763469 -0.1785917378
