10
0
O 1.9068931293 -0.336413504 -0.0145007144
C 0.571758767 -0.0916687287 0.0022258543
C 0.2626418304 1.3154982033 0.1190584448
N -0.9742737734 1.7070288029 0.0923153978
N -2.0501908478 2.0263820391 0.0778445174
C -1.1242494472 -1.87915818 -0.4011875068
N -0.2835023479 -1.0161161296 -0.0388274177
H 2.0473111325 -1.2712941109 -0.189454122
H 1.0222120219 2.070040974 0.2337626363
H -1.5368624648 -2.3980973662 0.4848279101
