11
0
C -2.3909999415 0.0833781888 -0.2614119568
N -1.1274157409 0.3965782878 -0.8874755941
C -0.0721630899 0.727155596 -0.4241240833
N 1.0760131553 0.9491279048 -0.0420030952
C 3.122061636 -1.4006927713 0.6989061845
N 3.8427114745 -2.2412972095 0.9894585631
H -3.1237801734 0.8417882918 -0.5366356674
H -2.7422929267 -0.8755197266 -0.6398883332
H -2.3149268325 0.0342923704 0.8262554732
H 1.340598974 1.9178402271 0.0744942352
H 2.4400184649 -0.6070721592 0.4281592743
