14
0
C -1.0253431308 0.6495191744 -1.3451915419
C 0.0264889728 0.9454350026 -0.3097070889
O 0.2748843299 2.0648466497 0.0629168278
C 0.0946616149 -0.6253986567 1.6116902305
C 0.7730790821 -0.2392296754 0.3081321485
O 0.784745084 -1.3837144881 -0.5248270592
H -1.6231978105 1.5408979795 -1.5201491002
H -1.6532449468 -0.1867850506 -1.0346927514
H -0.5468556027 0.3445369354 -2.2786175903
H -0.9254716671 -0.9660823814 1.4231206093
H 0.0641086112 0.2284393199 2.2880713808
H 0.6437580574 -1.4397988816 2.0837390981
H 1.7913471479 0.1070908713 0.5175253167
H 1.4116042576 -1.2497687991 -1.23729248
