11
0
C -2.6133887659 0.3988559154 -0.2085803903
C -1.338891918 0.1526765295 -0.0069441092
C -0.1149777418 -0.0783775087 0.1882638748
C 1.1625520665 -0.3791530232 0.3783043222
O 1.6055832538 -1.1061548913 1.4295473275
N 2.1963531628 -0.0424660848 -0.4523494571
H -2.9363708334 0.9911066759 -1.0549105207
H -3.3671812031 0.0150804861 0.4665832289
H 0.8504354831 -1.3368305166 1.9766277656
H 3.1018746271 0.0062764009 -0.0165861429
H 2.0013308687 0.6736480168 -1.1282858989
