19
0
C -2.0606408736 -0.1622657741 0.244874263
C -0.5723991722 -0.3044325581 -0.0152568821
C 0.1067166542 0.8763028792 -0.7727036787
C 1.194567092 0.8656301554 0.2779218617
C -0.2484855226 -1.6433465558 -0.6617439167
C 2.4321469592 1.3225068057 0.3196808264
C 0.3663708987 -0.0081566475 1.1932415743
H -2.6288341119 -0.2316497413 -0.6867406045
H -2.2920916069 0.8001810611 0.7071255163
H -2.4175875977 -0.9503897502 0.91340673
H -0.7655311539 -1.7477950189 -1.6192106172
H 0.4067378061 0.6961644341 -1.806862042
H -0.4931839611 1.7896902666 -0.7347294794
H 0.8241447147 -1.743395279 -0.8462536365
H -0.5571910172 -2.471616271 -0.018574773
H 2.8497621202 1.8923344913 -0.5026426919
H 3.0725151108 1.1395469367 1.1751042755
H -0.1364074004 0.5705993046 1.9728317116
H 0.8648130616 -0.8620967388 1.6559665632
