11
0
N -2.0824631302 -0.7807681643 0.1050063958
C -0.9209318063 -0.7296306951 -0.6571762553
C 0.2829772137 -0.4684858396 -0.2220702111
C 1.4928138677 -0.1177644353 0.1192676595
N 1.9539791769 1.2373873025 0.1453337899
N 1.1091676093 2.0592085676 0.5067077911
H -1.9349728131 -0.7886259564 1.1010608987
H -2.7511810918 -1.4715034478 -0.1915637122
H -1.0680188355 -0.8758577957 -1.7235762371
H 2.2796206114 -0.834707663 0.326824972
H 1.554923198 2.9826531272 0.4388639084
