15
0
O 0.1087484222 -0.6900009133 -1.3238122807
C -0.3250076066 -0.1648014548 -0.0830121058
C 0.7554417296 0.0414170807 0.9162810991
C 2.0251061974 0.2999087171 0.6046938053
O 2.5425987234 0.4117026061 -0.63451503
C -1.7018767739 -0.5529378957 0.3610493204
C -1.4464237352 0.815596763 -0.2109309545
H 1.8433954989 0.1907554207 -1.2686117313
H 0.4936756786 -0.0078347878 1.9653899645
H 0.3286191801 -1.6158631716 -1.1862214344
H 2.7765612938 0.4469321041 1.3716310731
H -1.8840907102 -0.648656778 1.4238280389
H -2.2388413056 -1.2551567331 -0.2629949977
H -1.8046536412 1.0071858232 -1.2135899053
H -1.4466929513 1.6679522197 0.4547041384
