9
0
O -1.7686274509 1.4174723512 0.3310913492
C -0.7323569345 0.8686428112 0.1700788298
C -0.4295740849 -0.6002956983 -0.0191866888
N 1.0061360965 -0.5400565947 -0.1534924745
C 1.5355016585 0.6720877295 -0.0732890189
O 0.4817008834 1.522328371 0.1223165521
H -0.7590399221 -1.1706446471 0.8502747755
H -0.9309592714 -0.9806396776 -0.9099848193
H 1.5915160253 -1.3424746451 -0.2980835053
