10
0
O -1.7458430553 0.6386392833 -0.3596643244
C -0.9521613591 -0.5167221344 -0.3189881574
C 0.4911218322 -0.241470774 -0.1192622718
C 1.70127789 -0.9819318954 -0.0154693893
C 1.8434264323 -0.1537531004 1.1945795272
C 1.2966545541 0.8033287679 0.2890290368
H -1.802873987 1.0143326348 0.5212708245
H -1.06706873 -1.0264128122 -1.2782064138
H -1.275117956 -1.2241483642 0.4563510519
H 1.5342313789 1.8016693947 -0.0459228835
