16
0
C 1.975393118 0.8223225728 -0.8564255083
C 0.8147269296 -0.3452835336 0.9704903725
C -0.6662859844 -0.6579431503 1.0000611921
C -0.8706264745 -1.1499452678 -0.4637342447
C -0.4243820325 0.3021268636 -0.7435070876
C -1.2389527128 0.7023166582 0.5055812352
N 0.9673831098 0.2856084672 -0.1888512631
H 1.7748380411 1.2813659326 -1.8085408546
H 2.963685268 0.7865014407 -0.4277202997
H 1.6121127944 -0.5668252577 1.6562838644
H -1.0656582373 -1.1860360681 1.8606949928
H -0.2267552324 -1.9501171249 -0.8265958688
H -1.9125666309 -1.3153682275 -0.7402028486
H -0.4736927662 0.7984104238 -1.708608657
H -0.9337049968 1.6045630778 1.0339597927
H -2.3118271934 0.6929981932 0.3100081825
