15
0
C -1.4614657138 0.6497852696 -0.8705744978
N -0.6496689707 -0.5238439839 -1.1464903264
C -0.4028122645 -1.5483220301 -0.1156268833
C 0.6160195962 -0.6589477582 -0.6486465743
C 1.8247497547 -0.1247883541 -0.6282496977
O 0.293917727 1.1116438502 2.0578999479
H -2.5071962006 0.4100265569 -1.0618142523
H -1.3491404819 0.9974492596 0.1626319344
H -1.1638323254 1.4494367685 -1.5490481936
H -0.7397311918 -1.3345607473 0.8973252758
H -0.5002981263 -2.5760671004 -0.4460088614
H 0.8744403874 0.817960615 1.3447461607
H 2.0605858628 0.7435854623 -1.2303094544
H 2.618441041 -0.5920976534 -0.0610411004
H 0.8171729061 1.0577188451 2.8584285228
