15
0
C -1.753630836 0.1736927362 -0.6899453564
C -0.6563876824 0.0980097404 -1.426477772
O -0.8491131423 -0.0670985096 2.7438638414
C 0.650661859 -0.4338831424 -0.9682866314
C 1.620373337 0.4026057423 -0.2210632315
N 0.8587478321 -0.641588162 0.4586215641
H -0.92189564 0.8866360322 2.7849161117
H -2.6662814517 0.58631378 -1.1021169096
H -1.7800315021 -0.1699737592 0.3379366044
H -0.6693799206 0.4441876802 -2.4569281653
H -0.2697057684 -0.2489317431 1.9829718801
H 1.0934840322 -1.1720441811 -1.6318604528
H 1.3369612765 1.4134468346 0.0467667708
H 2.6793933422 0.2438175545 -0.3878754218
H 1.4254922646 -1.4609946034 0.6319991683
