13
0
O 1.9535283877 1.4056653982 -0.3298687035
C 1.5622522116 0.2601384615 -0.3762158366
N 0.262811724 -0.1100187259 -0.303177273
C -0.755403964 0.9194781983 -0.2000111031
C -1.4218833584 1.2501625031 1.0243156405
C -0.1627937413 -1.4864226286 -0.3854490741
H 2.2474590778 -0.5985245779 -0.4808697407
H -0.2149044399 1.9116884548 -0.144022533
H -1.3582113394 0.9856118419 -1.1101663445
H -0.8247551766 0.8162667257 1.8496057452
H -0.828456544 -1.640323046 -1.2391615873
H 0.7092330575 -2.12822517 -0.5096196586
H -0.6884058949 -1.792566435 0.5228614688
