17
0
O 0.9558856455 0.346515288 2.626790105
C 1.6850408614 0.7566749316 1.7695656085
C 1.5629213832 -1.0310779236 -1.2293806356
C 0.379504199 -0.8790189732 -0.6489891907
C -0.6341664807 0.117509321 -1.0360380652
C -2.0946239613 -0.217108755 -0.8821655914
C -1.4688147695 0.7805163627 0.0334009415
H 2.7366056437 0.4235089348 1.688599447
H 1.8691618794 -0.4081450518 -2.0633642232
H 2.2606595279 -1.7902795194 -0.8988435769
H 1.3480712413 1.489749206 1.0141382075
H 0.1119844012 -1.5252301711 0.1851822319
H -0.3697359328 0.733173705 -1.8885493908
H -2.7734202533 0.1353406602 -1.6471071592
H -2.3404176895 -1.1919522687 -0.4805402724
H -1.7122807406 1.825665902 -0.1054685267
H -1.2843759548 0.4938413511 1.0612310909
