11
0
C -1.7468115978 0.4930483068 0.2155800391
C -0.5013656036 0.4815932693 -0.6215561558
C 0.6841981498 0.212416391 -0.1751431541
C 1.8702782819 -0.1344777481 0.2555027488
N 2.3458565517 -1.5055907991 0.2399678139
O 1.5533426659 -2.3230640397 -0.129419136
H -1.5278199475 0.2515369266 1.2541448379
H -2.223655646 1.4742793689 0.1755375091
H -2.4611673203 -0.2375169929 -0.1685553886
H -0.5953872881 0.7117264386 -1.6803271073
H 2.5987437541 0.5677418785 0.6378869929
