17
0
C -2.2453611526 -0.1973929313 0.3611148406
C -1.0636846005 0.7180434266 0.4193258427
O 1.6821602618 -1.5936439619 1.1154751485
C 1.3781551871 -1.7036884632 -0.0386812331
C 0.5589652978 -0.7114008173 -0.8293877679
C 0.1555852928 0.5234169061 -0.0739339723
C 1.2490135773 1.5360759655 0.1119140885
H -3.1037623575 0.3040405166 -0.0932639619
H -2.0563644033 -1.1118132308 -0.2003085333
H -2.5470516546 -0.4903403582 1.3701289019
H -1.2339533919 1.6509984888 0.9518918949
H 1.6984838365 -2.5949294255 -0.6200615772
H 1.1612895225 -0.449382639 -1.7091195654
H -0.296455431 -1.2639976104 -1.2282919733
H 1.62529651 1.8896847881 -0.8530975809
H 0.8993458056 2.3994449311 0.6775392481
H 2.0924497001 1.0948724146 0.6489392
