15
0
C 2.3845690006 0.2110704185 0.0166827649
N 0.9832485923 -0.1285101989 0.0217891766
C 0.4542186572 -1.3666889996 0.3409469853
C -0.9298656157 -1.3699130233 0.3347043567
C -1.1655386068 -0.0317340602 -0.0023891071
N -2.5789342721 0.3747088413 -0.133449043
C -0.0407925819 0.7403264427 -0.1965454038
H 2.9639781268 -0.6796143694 -0.2251177858
H 2.5873309892 0.9672746369 -0.7421151887
H 2.7128468774 0.5867571593 0.9891008758
H 1.1527523929 -2.1695270035 0.5422427021
H -3.0330332885 -0.5263117625 0.0839171812
H -2.8428281077 0.6719965423 -1.0705901423
H -2.8757013052 1.078565005 0.539355954
H 0.1331671415 1.772871371 -0.4592143258
