13
0
O -3.2000008543 0.158529032 -0.5254134912
C -2.0250651525 -0.0638714995 -0.4569616514
C -0.8629223852 0.6903708537 0.2580112081
C -0.0659113081 -0.4473434087 -0.3453428331
C 2.0338433747 0.1031502361 0.5214497002
O 1.2190657169 -0.727540238 -0.3002010999
C -1.0948045178 -1.0765146569 -0.956007598
H -0.9295554869 0.7165270657 1.3472572552
H -0.6579419589 1.6891377752 -0.1320186299
H 1.875207793 1.1570423638 0.2884346746
H 3.0631351375 -0.1683764077 0.3030279814
H -1.1839802818 -1.9653063909 -1.5616673607
H 1.8228469234 -0.0796617246 1.5766578447
