16
0
C 2.2539459301 -0.3791333372 -1.3416201855
N 1.2015004303 -0.0060048622 -0.4302444833
C 1.4008981737 0.6701057383 0.7124690458
O 0.5290277929 0.9904197058 1.4961467595
C -2.3653845192 0.5618862483 -0.0284261754
C -2.1990001043 -0.6928555625 0.6907888345
O -1.6814691568 -0.5362910754 -0.6286596208
H 2.3237806425 -1.4639381745 -1.4483215996
H 2.0979772477 0.0578429596 -2.3302986149
H 3.2076779939 -0.0144772004 -0.958066508
H 2.4641001218 0.9210178203 0.8881928232
H -1.7299676177 1.3968370347 0.2476411811
H -3.3201812254 0.7993165071 -0.4860349311
H -1.4471884201 -0.7382918477 1.4718432221
H -3.0302984247 -1.3859919496 0.7674883278
H 0.2382891352 -0.2647760047 -0.6366450755
