16
0
C -1.5988725463 0.3252226359 -0.1130304936
C -0.4012124862 0.7728331485 0.6933086495
C 0.4049456127 -0.1280706894 1.5652317102
C 0.9921292865 -1.0420985007 0.5508423349
C 1.0178133758 0.4429393229 0.3366419036
O 0.5779600569 -0.394993479 -2.7728823226
H -2.4899138556 0.2862701998 0.5166762361
H -1.4586174202 -0.6606338366 -0.5560176494
H -1.7972806664 1.0318943882 -0.9226642851
H 0.8456467113 -0.1655586322 -1.8766539126
H -0.5179561932 1.7736244715 1.1063201305
H 0.7219736661 0.0286981171 2.5830521721
H 1.9392285612 -1.5027499794 0.8116856884
H 0.3547729853 -1.6721004367 -0.0630395412
H 1.874280034 1.0951630751 0.2826253704
H -0.1620621219 0.183377195 -2.9619039911
