12
0
C -1.5336628945 -0.4709420721 -0.1853696768
C -0.560534511 -1.4433210049 0.2959245863
C 0.2406505627 -2.2424637695 0.6894030276
C 1.7994224636 0.8634801158 -0.9277414423
N 1.1773714494 1.6418072903 -0.2943830674
N 0.4573533357 2.518256452 0.1920201998
H -1.376348494 0.5020749003 0.2829901816
H -1.4468336997 -0.3435621681 -1.265409322
H -2.547878425 -0.8035466759 0.0388058954
H 0.9401741395 -2.9611536333 1.0455099761
H 1.9260440239 -0.2009820637 -0.8229406351
H 0.9588220496 2.9788776289 0.9501692769
