17
0
C -1.8570941152 0.314779371 -0.0082165173
C -0.7560972798 -0.6862853266 -0.4574655874
C -0.1068977017 0.1071681759 -1.5233340796
C 1.1522655504 0.7446708259 -1.0891637053
C 1.4869088118 0.8274320623 0.3742321868
C 0.9956405396 -0.0606871982 1.2266231974
C 0.1040095742 -1.1583886349 0.727055751
H -2.518187125 0.5696968333 -0.8345001301
H -2.4420004777 -0.1583075519 0.7818051241
H -1.4287315781 1.2336901611 0.3947291542
H -1.2818945217 -1.5375571361 -0.897537755
H 0.7154156599 -2.0086879165 0.4014382104
H 1.3433190536 1.67320672 -1.6313620722
H 1.8225964656 0.0192878469 -1.6026838707
H 2.1258092673 1.6363850488 0.7117419588
H 1.226008151 -0.0029444138 2.2847336605
H -0.5357652745 -1.5380458674 1.5280734744
