12
0
C 2.4763513849 0.5952866686 0.0533216965
C -0.9735388005 -0.1204175398 0.0419337408
C -2.099033622 -0.8220797931 -0.5370619717
N -1.9845055708 -0.5963242581 0.9211954165
C 0.1466906553 0.5125211162 -0.0146042043
N 1.158244099 1.1932784186 -0.0959919622
H 2.4408148391 -0.4878997936 0.1995867456
H 3.0648864625 0.8250480248 -0.8355419772
H 2.9724785293 1.0608793502 0.905786964
H -2.8304292741 -0.2445366552 -1.0938358271
H -1.9909150903 -1.8572439574 -0.8401867292
H -2.5919986125 0.1619764187 1.2169581082
