17
0
C -1.6560894886 0.6280138036 1.0838590406
C 0.3222798512 -2.5960054868 -0.8576063728
O 0.4718117369 -1.3450120597 -0.5568489878
C 1.5621476958 -0.6634586588 -0.3690965703
C 1.5107937965 0.7227050146 -0.0325800309
C 0.4615776719 1.5574320233 0.0657699284
C -0.9841029498 1.2262056483 -0.1563594111
H -1.5901487633 1.3114561979 1.9329160709
H -2.7122975616 0.4223988458 0.8960136908
H 1.1943947663 -3.2200433943 -0.9995746457
H -0.6970831635 -2.9256157891 -0.9542751746
H -1.1733169766 -0.3068023757 1.3730260793
H 2.4979565832 -1.2041615379 -0.457894485
H 2.4943699242 1.1357845754 0.1690326448
H 0.6826891899 2.5770465537 0.3645306877
H -1.0902692301 0.5302357143 -0.9912202452
H -1.5141250826 2.1381649256 -0.4429892188
