14
0
O -0.257674105 -2.6718643842 2.1242534423
C -0.6147445146 0.9043354473 -1.4238745774
C 0.4858274756 1.6307581134 -1.4056932585
O 1.4827352125 1.4533035129 -0.4714492457
C 1.267127693 0.4718338624 0.4356686235
N 0.2727498403 -0.286507329 0.5360349518
C -0.8356826805 -0.172151382 -0.4053861827
H 0.0141662197 -1.8659161803 1.6550809618
H -1.3595448566 1.0922961032 -2.1858598192
H 0.7315446913 2.4225150618 -2.0980532509
H -0.6709112955 -2.3651313298 2.9313773265
H 2.1046559913 0.3956217093 1.1218075674
H -0.9730802783 -1.1475531911 -0.8819665947
H -1.7503843932 0.0078119859 0.1680880557
