12
0
N -3.2543385087 -0.338007654 -0.5327395075
C -2.2055754501 0.0894949717 -0.3537250574
C -0.858948725 0.6000711278 -0.1157923219
C 0.1098108802 -0.5271457562 0.2561023102
C 2.483882424 0.0495787646 -0.250676145
N 1.4429872595 0.004364967 0.5319221744
H -0.5083529808 1.1084060625 -1.0162266907
H -0.9077516169 1.344440353 0.682358109
H -0.2570307297 -1.0640312486 1.1331607557
H 2.1765074686 -0.4281347023 -1.2042330524
H 0.1961100684 -1.2376429843 -0.5654476846
H 1.5476099104 0.4032550989 1.45718311
