14
0
C 2.204765647 -1.1026247634 0.4850343252
C 1.149694794 -0.1247256061 0.7571966118
C 0.6492409737 0.4753252528 -0.4744364618
O -0.5904731676 1.1644002093 -0.3460827718
C -1.6216007494 0.3374521651 -0.0842026367
O -1.5288355504 -0.8657834414 -0.0499462538
N -2.7679550851 1.0404409935 0.0895305621
H 2.7022782 -1.0798111593 -0.4950972064
H 2.9205530715 -1.2172364972 1.2981619366
H 1.5827554372 -2.0169274095 0.5100699899
H 1.3999798512 1.2540105254 -0.6824817664
H 0.612439115 -0.1890717605 -1.347603116
H -3.5599292618 0.5363589121 0.4405982021
H -2.7172812752 2.0311055792 0.236195585
