12
0
O -1.1561025363 2.1214488159 0.2975361254
C -0.4615071634 0.9872268224 0.1266346772
C -0.9090307295 -0.2592559934 0.0740551632
C 0.0565740577 -1.393692773 -0.1270679977
N 1.4399705417 -0.9553230064 -0.2244119223
C 1.7114397516 0.2617327049 -0.1561712454
O 0.8510012709 1.3156764993 0.0090308844
H -1.9677805758 -0.4590369344 0.1794450387
H -2.088222947 1.9055809108 0.3775019645
H -0.175356222 -1.9585019008 -1.0362051701
H -0.0047178586 -2.1161170407 0.6934277672
H 2.7291284108 0.6310308956 -0.2267512849
