11
0
C -1.3747223305 -0.5772830324 0.0309664691
C -0.119549607 -0.1181541665 0.6656426508
C 1.1885143746 0.0855307614 -0.0756294522
O 1.0001102142 0.5498336827 -1.3950996345
C -1.2255083548 0.8469607402 0.4208641492
H -2.0721004589 -1.1966244925 0.5839114046
H -1.4289808761 -0.7041345694 -1.0484422646
H 0.0020610607 -0.3621028033 1.7195039061
H 1.7157427722 -0.8664173047 -0.1606820871
H 1.8199996808 0.772095102 0.5000829754
H 0.7165135249 1.4666560825 -1.3593661167
