11
0
O 2.9249057101 -0.9565708445 -0.5109445505
C 1.8178208162 -0.5846247425 -0.3186340252
N 0.7881596005 -1.0745357742 0.3894321148
C -0.3684662526 -0.2289513886 0.2984343894
C 0.0726249421 0.9086910976 -0.5914883904
O 1.3074383637 0.6448510449 -0.900033538
H 0.8732010786 -1.9323732714 0.9004498749
H -1.2353262417 -0.7126357297 -0.162900312
H -0.6904374935 0.1869173548 1.2583696771
H -3.1732223638 2.0280710841 0.0850399571
H -2.5053891596 2.0357011697 -0.2501891971
