14
0
C -1.0653466249 -1.0730129179 -0.3571152796
C -0.403810726 0.3116694089 -0.2420984487
C -1.0756892487 1.0595386146 0.8846909804
O -0.5825780063 1.4064035026 1.9217287262
C 1.1005116141 0.1908369525 -0.1701490177
O 1.5751858645 -0.2431308455 -1.3600078308
N 1.8927545868 0.4074226177 0.781019753
H -0.8362690264 -1.6802155345 0.5199185783
H -2.1499000786 -0.9780012723 -0.4382117541
H -0.6982020736 -1.5880906197 -1.242537994
H -0.6422508502 0.8654743423 -1.1578210527
H -2.1504503843 1.2586923815 0.6877082461
H 1.3965640831 0.7410320883 1.6005028017
H 2.5314818705 -0.3196607182 -1.254311708
