15
0
C 1.1629396759 1.2501873111 -0.4137859274
C 0.0187832297 0.4824222219 0.211093228
O -0.3857468779 1.0353027189 1.4381841811
C -1.1748526447 0.1591617018 -0.7269324821
N -0.7150877559 -1.2362960607 -0.7227242583
C 0.2097895208 -1.0319551161 0.2764274949
N 0.9272365343 -1.7214594801 1.0496065095
H 2.0361465208 1.2079194804 0.2391823846
H 0.8775267232 2.294392527 -0.5508757214
H 1.4381151342 0.8253060793 -1.3809159918
H 0.137192918 0.6125677361 2.1264315376
H -1.1659602785 0.6286366514 -1.7117140555
H -2.1329721459 0.3184493223 -0.2304396654
H 0.7962460498 -2.721910674 0.9261486105
H -1.2670176036 -2.0628794191 -0.8812638442
