17
0
C 2.0123173029 -0.0860753324 -0.5574308291
C 0.789193789 0.238088724 0.2612573374
O 0.0179253906 1.314950494 -0.3701048515
C -1.662440727 0.8033968881 -0.3517226571
C -1.4941061519 -0.1363370614 0.8207321899
C -0.2255923321 -0.8962072686 0.4391321309
O -0.4233638613 -1.6057954674 -0.7566429364
H 2.6461353228 0.792230458 -0.688593391
H 1.7246591467 -0.4883151815 -1.5299824247
H 2.5946612365 -0.8534948586 -0.0462096785
H 1.0649105881 0.6393567772 1.2378077151
H 0.1580351608 1.2811597004 -1.3212650018
H -2.090531824 1.7588322673 -0.0307569535
H -1.3817902653 0.3199399231 1.8143100743
H -2.3459643824 -0.8195127455 0.8527647451
H 0.118895663 -1.5977070777 1.2027970895
H -1.0695800565 -1.0609702388 -1.2442385589
