16
0
C -2.4366907065 -0.2664039687 0.1505848197
C -1.000554478 0.1182911606 0.1033669406
C -0.4355382929 1.3244398655 0.0935829817
C 1.0630895656 1.1716253276 0.0722905496
C 1.2431922712 -0.3315313965 -0.0570959258
C 2.3675570748 -1.0021517407 -0.2962470235
N -0.0252463069 -0.8884690066 0.1151809631
H -2.6501103241 -0.8554081412 1.0458712099
H -3.0678518605 0.6203764654 0.1582893986
H -2.7092707548 -0.8735933903 -0.7171476943
H -0.9639774824 2.2634993627 0.1469068681
H 1.5456096399 1.7002434072 -0.7527187596
H 3.3026040997 -0.4746644366 -0.4192724139
H 1.5236080163 1.5332488714 0.9973846972
H 2.3838355473 -2.082635551 -0.3649133934
H -0.2279580087 -1.8110908287 -0.2270122178
