14
0
C 1.3190315088 0.6770132347 0.2096704339
C 0.53352939 -0.5417205688 -0.2389240684
O -0.4138015624 -1.0247869252 0.6877729591
C -1.3903066016 -0.087265989 1.0806533657
C -0.1264725923 -0.3522559034 -1.5980226402
O 0.2254213743 0.441743377 -2.424132474
H 0.6913827786 1.5672164449 0.2642697279
H 1.7669039737 0.4946830978 1.1869046333
H 2.1100425272 0.8833518788 -0.5101713466
H 1.2263617692 -1.3813858608 -0.3781949676
H -0.9777542698 0.6818379493 1.7414593909
H -2.1569513315 -0.6394394216 1.6216209039
H -0.970674707 -1.0497455168 -1.7851531353
H -1.8585122572 0.4075782031 0.2196532175
