13
0
O 0.338836917 1.715639161 0.5828257648
C 1.3210751237 1.0153654527 0.6018080163
C 2.4981432906 -1.0652029826 0.2089475058
C 1.3636428231 -0.3800586784 0.1359605223
C -3.1961274161 0.0534455887 -0.5596401077
N -1.9503347854 -0.1263950423 -0.5177379348
H 2.2820211769 1.4105221009 0.9908289312
H 2.5701862753 -2.0934660488 -0.1228805289
H 3.4011131023 -0.6134405352 0.6087946068
H 0.4422565848 -0.8002377527 -0.25587951
H -3.8421187938 -0.7536306925 -0.9089799021
H -3.6933506607 0.9824663158 -0.262275334
H -1.4595496378 0.7000411136 -0.1701800295
