13
0
C -2.2211365777 0.1174264402 -0.2780687637
C -1.8851120149 -0.7480004051 -1.2235753945
O 1.0083032908 1.0858391979 -0.8537699862
C 1.5303092299 0.3639196684 -0.0369232641
O 0.8929620455 -0.6370600413 0.596882203
N 2.8221973497 0.443406816 0.3564465772
H -1.7375292483 1.086156436 -0.21431414
H -0.0199402769 -0.6449223236 0.2676869968
H -2.9890104048 -0.1071435009 0.4538338886
H -2.3642789804 -1.7173169865 -1.3051700712
H -1.12080481 -0.5057781242 -1.9540107187
H 3.1769752175 -0.1542306513 1.077306752
H 3.3851291796 1.1842104745 -0.0127600792
