15
0
O -1.1932306588 1.2585925459 0.4212385372
C -1.804153191 0.0419610109 0.7277151381
C -1.0943336067 -1.1123995993 0.0298803462
O 0.2794032574 -1.0023634581 0.4293932865
C 1.1437798147 -0.5132179751 -0.4077069494
C 2.1204843916 0.3647774302 0.0094135536
C 1.7883586233 1.1766200087 1.0986414836
H -0.3301783874 1.3091863251 0.8905047948
H -2.8436593374 0.0792646837 0.3899066821
H -1.804854966 -0.1529777572 1.8067706725
H -1.1707629251 -1.0295106787 -1.0580239451
H -1.4567354855 -2.0847978319 0.3641453828
H 1.0469191332 -0.8422065591 -1.4466699072
H 2.9649177143 0.506787239 -0.6655315054
H 2.5972876234 1.9054426159 1.2664884298
