13
0
C -1.8640500205 -0.732093794 -0.3996895756
N -1.3648731818 0.5583970307 0.3277368523
C -0.6001068669 -0.043092963 -0.7681315268
C 0.768021184 -0.5025910181 -0.3505716024
C 1.7289780608 0.359622965 0.3303206348
O 0.9888089887 -0.6250110047 1.0460979678
H -1.6158315277 -1.5266782287 0.3160509998
H -1.8872116837 1.4033079511 0.1636571604
H -0.9089714735 0.4907265272 1.2298492309
H -0.5853128735 0.5505961473 -1.6820659144
H 1.1523640357 -1.3337009642 -0.9371955023
H 2.7933625137 0.1632118308 0.2470311593
H 1.4611798447 1.3901585205 0.5504861163
