11
0
N 1.7276372755 -0.2456059718 -0.7591817088
C 0.4664222019 -0.1006239693 -0.2483587638
C 0.1690638468 0.9263018174 0.7076427627
N -1.0120527928 1.1195675976 1.1814061996
C -2.0840506832 0.3200204355 0.7472955432
N -1.6955796503 -0.5965378741 -0.139205464
N -0.4841413536 -0.8775724582 -0.6666944371
H 2.4952796511 0.0781257672 -0.1985782821
H 1.8961779119 -1.0915955391 -1.2767064925
H 0.9763093211 1.5729220135 1.0542811646
H -2.4078417283 -1.2121338186 -0.5001645217
