13
0
C 1.2141135713 -0.5486167425 -0.3422953564
C 1.2670092006 0.5195817003 0.7389213177
C 0.1179365244 1.1856560789 0.0538474263
C -0.1427302188 -0.0644106143 -0.8575213722
C -1.1894012098 -0.5166714378 0.1624485984
N -0.7493002268 0.5478293219 1.0646401631
H 1.3824485427 -1.6019447583 -0.1033097456
H 2.0042765026 -0.213198327 -1.0272876219
H -0.3852517465 0.3850305725 1.9977733782
H -0.0305050587 2.2437344554 -0.1451907952
H -0.3870910136 -0.0696922208 -1.9179043944
H -1.0934140017 -1.5379406779 0.5391733151
H -2.220170866 -0.3377463503 -0.151993913
