11
0
O -1.3782637336 0.7919867766 -1.5477447818
C -1.0745396266 0.3400628333 -0.244048031
C -0.0509036831 -0.7524360294 -0.2717962782
C 1.0616091992 -0.7954822216 0.4564496978
C 1.4226145453 0.233696621 1.3849697487
N 1.7294672701 1.0551465871 2.1275330438
H -0.6149970944 1.2577467683 -1.8953318642
H -0.7546225118 1.1593639432 0.4082106388
H -2.0085510093 -0.0569214263 0.1611529609
H -0.2493282926 -1.5628172964 -0.9662297149
H 1.7534779367 -1.6249865558 0.3794625801
