12
0
O 0.7322620345 -0.3253443394 0.787083954
C 1.8362983427 0.3774087106 0.3474061707
C 2.0363608258 0.7260597553 -0.9055414388
O 2.2691228004 1.0987262371 -1.9810440265
N -0.2049156876 -0.3675339209 -0.2819223165
C -1.3896267105 -1.0729083676 0.1670324268
C -1.40329785 0.4016026406 0.0628226734
H 2.5733082848 0.6067886518 1.099353826
H -1.330708398 -1.4974343048 1.1612596206
H -1.8598963922 -1.692118395 -0.5854820227
H -1.8748109396 0.8944860154 -0.7773243371
H -1.3509183104 0.9653163169 0.9847904704
