14
0
O 0.2208827591 -2.5514262068 1.3758961308
C 0.1089672796 -1.5118085024 0.8009396579
C -0.6357937371 -0.2162083459 1.0994471991
C -0.3973223363 0.1963838472 -0.3790469256
C 0.1583080548 1.582605164 -0.6304666459
C 0.5720923088 -1.0039044275 -0.5592311574
H 1.0687058836 1.7475736677 -0.0475820937
H -0.0782607241 0.4021819543 1.8085302287
H -1.660989833 -0.3227534453 1.4538361701
H -1.3046160089 0.0414189009 -0.9660980381
H 0.4061757911 1.7247531741 -1.6844913556
H -0.5624696472 2.3534819542 -0.3498528361
H 0.4168075666 -1.6788893137 -1.4007810904
H 1.6251996428 -0.7097634209 -0.5315962438
