11
0
N 1.611378631 -0.0271749903 -0.0601666007
C 1.020308306 0.4796204223 -1.0931573576
C -0.0973563094 1.3590810821 -0.7938374246
N -1.1692185958 0.92005856 -0.2573498229
C -1.0548021908 -1.9578210929 0.9256971919
N -0.7449149382 -2.9375519006 1.4317711094
H 2.3497990292 -0.7050786665 -0.1769569367
H 1.3359562195 0.1610050287 0.9022183839
H 0.0109049318 2.3843454155 -1.1639262196
H -1.8943432899 1.630697512 -0.2331759087
H -1.2988917935 -1.0061773701 0.4574605853
