14
0
C -2.2655263498 0.1407736891 0.5619978481
C -0.8732558187 -0.4631345998 0.6934276094
C 0.0538559252 -0.1937054144 -0.4013873314
C 1.4401621215 -0.2592533262 0.0060204485
O 2.4069248482 -0.2857236849 -1.0823989903
C 2.3408016579 0.7030654139 -1.901155177
N 2.3393081345 1.5884916719 -2.6377045225
H -2.2277502703 1.2175376903 0.7307637333
H -2.9516291423 -0.2901358082 1.2923634139
H -2.6571758696 -0.0269889894 -0.4407662412
H -0.4731671437 -0.3715559444 1.7154151721
H -0.9417281046 -1.5574737515 0.5020807235
H 1.6156843201 0.6508583145 0.6032103828
H 1.7129936917 -1.1222772608 0.6210369311
