15
0
C 2.1633484362 0.1835117911 -1.1970979302
C 1.1890386607 -0.043718878 -0.1233566038
C -0.0865064992 0.5937134847 -0.3882853095
N -0.9824360233 0.7756656013 0.7352884593
C -1.2044736133 -0.400832112 1.5456791739
C -1.8621459694 -1.506347397 0.8150786825
N -2.3786607786 -2.3252361729 0.1986730664
H 1.7913015753 0.5805141696 -2.1522865853
H 2.7912932213 0.9642384981 -0.733773331
H 2.8372980921 -0.6589633145 -1.3530927196
H -0.24423957 -0.76502282 1.9115997721
H -0.433622756 -0.2026282048 -1.1048232711
H -0.0561841327 1.5181182781 -0.9818755052
H -1.8599425247 1.1683162007 0.4247868677
H -1.8231341186 -0.1406331243 2.4050402338
