16
0
N 2.5461095087 0.4138427503 -0.2436967272
C 1.1893684758 0.1602942566 -0.0910982761
C 0.6460303081 -0.9911886897 0.3169706569
C -0.840187107 -1.1790057732 0.4321641082
C -1.5635946559 -0.0257067418 -0.2564391585
C -0.8660782305 1.2776562659 0.0788249578
O 0.480684981 1.279109912 -0.3813583231
H 2.7279692891 1.1984013375 -0.8485657692
H 3.0910876425 -0.3953386282 -0.4883413764
H 1.3090992751 -1.8110893842 0.5616699578
H -1.1486562422 -1.2355531446 1.4831118825
H -1.1410687274 -2.1274340567 -0.0218696169
H -1.5453734766 -0.161925434 -1.3413503095
H -2.6104160896 0.0310318398 0.0502611211
H -0.8637478097 1.4429631052 1.1629345322
H -1.3371491414 2.1339043851 -0.4028916597
