13
0
C -0.6678810385 2.0726425547 -0.0598543011
C -0.8248510224 -1.7839306442 0.1349430449
C -0.4412361817 0.9741217724 -0.7630904337
N 0.644392425 0.1036753506 -0.5500717635
C 0.9020705826 -0.363567438 0.7481731525
C 0.4079065348 -1.3353662026 -0.3738190589
H -0.0554499167 2.3454077803 0.7916075084
H -1.472937765 2.7393531061 -0.3333928307
H -0.7555354045 -2.8816521653 0.2376335777
H -1.0458787641 0.7087912657 -1.6218402972
H 0.2045699067 -0.095075617 1.5348637956
H 1.9312743594 -0.5431335861 1.0343387444
H 1.1899352845 -1.9445251768 -0.8219491385
