13
0
C 2.0866893226 0.3320154618 -0.4199693756
C 0.7711084941 0.0706309689 -0.244905647
C -0.0198777801 -1.1014613627 -0.4490959193
N -1.3537783013 -0.8191458661 0.1793840959
C -1.3574851476 0.6206276663 0.4671400871
C -0.1542256552 1.1146531011 0.2259327331
H -1.5131387783 -1.339856809 1.0459417646
H 2.7810069751 -0.4295242461 -0.7494036822
H 2.4747322786 1.3274475217 -0.252302585
H 0.332448651 -2.0996009341 -0.2284014731
H -2.1172166573 -1.0569713841 -0.4512471868
H -2.2724003604 1.0788380013 0.8088918679
H 0.1227139588 2.1501688809 0.3667383205
