14
0
C 1.6700138635 -0.8811711923 -0.5429685716
C 0.5581355714 -0.4728707687 0.3746762112
O 0.5674055096 0.8824821229 0.8664345375
C -0.4865592986 0.4917517826 0.0205062569
O -0.5175566573 1.1080845674 -1.2165367913
C -1.8628759176 0.4425415929 0.6113950365
H 1.4653916303 -1.8714700653 -0.9541472307
H 2.6146574567 -0.9267356717 0.0015870967
H 1.7932172556 -0.1899915832 -1.3770671383
H 0.3226021811 -1.2000954696 1.1507835286
H 0.3700087082 1.4083486163 -1.426814049
H -2.5366628884 -0.0933458827 -0.0575018923
H -2.2391903339 1.4576163056 0.7428255651
H -1.8423360808 -0.0595383545 1.5773244408
