15
0
C -0.871169471 2.2353445577 0.065447536
C -0.0940175152 1.7231590454 0.982874271
C -1.0319659737 -1.4574693413 -0.8616778981
C -1.2116210114 -1.4283167636 0.4489954778
O 0.6067502597 1.2758984481 1.7874129489
C 2.417159739 -0.3314135349 -0.2924552188
O 2.3399434537 -1.5262105086 -0.3114490107
H -1.462873133 1.567496537 -0.5409387614
H 1.6686308855 0.3100381348 -0.7959497512
H -0.9179751644 3.3067379695 -0.0518913407
H -1.8305328453 -1.2060254111 -1.5515293634
H -0.078952615 -1.7505165279 -1.2882590685
H -2.1618623233 -1.1475535683 0.8904453091
H -0.4117487672 -1.69022008 1.1320953063
H 3.2400404816 0.192105043 0.2278855637
