13
0
C 0.3678770742 -1.2764305077 0.0579506339
C 1.1261065224 -0.4523176988 -0.9236640316
C 0.7501531742 0.9538003512 -0.608321073
C -0.3994607361 0.9819927492 0.3802119934
N -1.6124132753 0.2842229632 -0.0269540436
C -0.6389793032 -0.418270217 0.799270846
H 1.1578655088 -1.6681598369 0.7193617858
H -0.0430193641 -2.1758020897 -0.4135125785
H 1.6790422077 1.3738958163 -0.1893227044
H 0.5942061522 1.5352007783 -1.523633188
H -0.5482581012 1.8316067892 1.0361348612
H -1.5656556487 -0.014228696 -0.9961198854
H -0.9787812106 -0.6924084015 1.7910733843
