14
0
C 2.4707323388 0.1537232477 -0.5593903343
N 1.1046715586 0.5636988431 -0.781332877
C 0.2179257811 -0.0092723134 -0.0995316858
N 0.3369856027 -1.0008899066 0.8250860065
C -2.0580145375 -0.0325248745 0.4560441361
O -1.0850424967 0.3856321672 -0.3615118118
N -3.1900724184 0.4755606644 0.0147824383
H 2.6239180075 -0.9132688772 -0.7680457671
H 2.8028723444 0.3457505375 0.4710509152
H 3.1272595415 0.7191711574 -1.2190652263
H -0.4831555314 -1.1605153275 1.3926985088
H 1.2402505089 -1.1315537924 1.241450774
H -4.0373473449 0.2703532453 0.5097417496
H -3.2385803544 1.070137229 -0.8041908263
