17
0
C 2.0202389752 1.2966944048 -0.3366788106
O 0.6715831699 0.9688007241 -0.1342515722
C 0.3876306179 -0.3807039713 -0.4758109441
C 0.8470160642 -1.4921480693 0.4460311911
O -0.8082828816 -1.3162484081 1.1303473828
C -1.0719769333 -0.6778401057 -0.1792597941
C -2.0399475465 0.4607258917 -0.0311524341
H 2.6863260235 0.6947805834 0.2939406729
H 2.3118032733 1.1517482264 -1.3859465911
H 2.1470563465 2.3467671138 -0.0763451959
H 0.6735200378 -0.5430008718 -1.5231756654
H 1.3992230046 -1.0613056282 1.2925947276
H -1.1413904286 -2.2170060971 1.1350170454
H -1.4436202824 -1.4462405524 -0.8571318476
H -2.1674893186 0.956094107 -0.9949296389
H -3.0115209777 0.0928866472 0.3033817539
H -1.6626131439 1.1921250056 0.68045772
