12
0
O -2.1256347265 -1.0085552173 -0.2104106692
C -1.2227673711 -0.0401277084 -0.6539916984
C 0.0988124675 -0.0363620662 0.0569596435
O 0.0296453779 -0.5216458403 1.2678239953
C 1.2589713889 0.4856987928 -0.496873867
C 2.490054002 0.5902829111 0.1452862595
H -2.1976458303 -0.9614767756 0.7457514435
H -1.624627473 0.9808571795 -0.557289007
H -1.0464953767 -0.2120962541 -1.7160531133
H 1.1558373985 0.836613334 -1.5218420325
H 0.9210703896 -0.4492336693 1.6612910974
H 2.436030753 0.1796763136 1.183867948
