12
0
O 0.4041295456 1.4308245832 0.6248870775
C 1.1424098702 0.6243588827 0.1162734907
C 1.6040417842 -1.4877678198 -0.9811879197
C 0.7113607861 -0.6670967343 -0.4416741219
C -2.37568053 0.9451870215 0.8378417267
O -2.6473638456 -0.1330450629 0.3886766162
H 2.230941184 0.8273069448 0.041755076
H 1.3230581826 -2.445558907 -1.400745616
H 2.6563960454 -1.222379994 -1.0193962531
H -0.3456230614 -0.9029076367 -0.3882676214
H -2.1290853583 1.0905104836 1.9046011498
H -2.3661516026 1.8557012388 0.2131233953
