10
0
N -1.4522606549 1.3994763092 -0.8604248355
C -1.0146946013 0.455061911 -0.0005134214
O -1.7038883409 -0.3656697002 0.543730954
C 1.8703821185 -1.4056825192 0.6773098363
C 1.0821048667 -0.4015999722 0.4341558306
N 0.4040840143 0.5858990779 0.2040285173
H -2.4350032752 1.4568625249 -1.0515782653
H -0.8279702655 2.1100464707 -1.1911303238
H 2.003485499 -1.7483109541 1.6934459214
H 2.3723396391 -1.9118021478 -0.1345762136
