13
0
C -1.2001083371 0.8512221196 -1.3551542829
C -1.0694838984 -0.2172394518 -0.5845862186
C 0.1849768311 -0.6687196319 0.0893270001
C 1.3781100019 0.2997132556 0.2989463886
N 1.2425427174 0.1145143002 1.7677160943
C 0.2390161672 -0.6541456478 1.5976290661
H -0.3706859204 1.51569268 -1.5675848844
H -2.1509597488 1.0990115309 -1.8102152029
H -1.936996369 -0.8520508156 -0.4167332724
H 0.4934882999 -1.6374329015 -0.3184780046
H 2.3435124146 -0.0318468627 -0.0856652355
H 1.2030625771 1.3341121921 0.0043783179
H -0.3497457358 -1.1357827669 2.3769792343
