14
0
C -2.0765480953 0.1960578068 -0.1378495445
N -1.0703156125 -0.2900723478 0.7835101276
C 0.2762249434 -0.196764498 0.5351488824
O 0.49801203 0.0889039486 -0.7565160902
N 1.238084109 -0.371241107 1.3479053094
C 1.859370089 0.1505866501 -1.1577936964
H -2.027383366 1.2785432425 -0.2925021639
H -3.0574801116 -0.0561724387 0.2635881106
H -1.9712346408 -0.2926990459 -1.1046938906
H -1.3119833918 -0.2781409174 1.7572225401
H 0.9074684732 -0.587714409 2.2801031643
H 2.3548563225 -0.8052335724 -0.9864521651
H 1.8393228557 0.386599748 -2.219727493
H 2.3905573952 0.9234819403 -0.6021990908
