13
0
C -0.7257190515 -0.9499902486 -0.2437798541
N -0.8616493453 0.4820817704 -0.5255475627
C -0.2449916249 1.2411494241 0.5102196873
C 0.5436516514 0.9728269538 -0.7534119942
C 1.5576845842 0.0207824432 -0.4218620965
C 0.7997118261 -1.2225400135 -0.1215653635
H 1.1467942968 -1.7251445105 0.7837910772
H -1.1710420756 -1.5052644078 -1.069100557
H -1.2755346403 -1.199125502 0.6656391164
H -0.5776714211 2.2643243623 0.6332186341
H 0.0516945265 0.7426490644 1.4297084184
H 0.6883400577 1.8085929182 -1.4238190727
H 1.1246492158 -1.8772332541 -0.9423444328
