15
0
C -1.1816751333 1.2157190909 -0.5801673823
C -0.214799567 0.1097847753 -0.2764893067
C 1.2098138019 0.136711398 -0.8142095017
C 2.1061951856 -0.5568680318 0.1988595592
N 1.2965619498 -0.8751513752 1.1817410826
C -0.1060815713 -0.5680672496 1.0193778001
N -0.69322668 -1.2780259171 -0.1129008803
H -0.7462161112 2.1863697821 -0.3359079313
H -1.4377890701 1.2210067928 -1.6420562756
H -2.1073811342 1.1080777129 -0.0102199245
H 1.5786097696 1.1568119353 -0.959300472
H 1.3010557686 -0.370255873 -1.7777146967
H -0.6858684167 -0.3407143072 1.9055556308
H 1.6250349244 -1.3808379058 1.9891305166
H -1.7046297162 -1.2812948276 -0.0242292183
