9
0
O 2.7140891818 1.0917061942 0.1191586246
C 1.5707177262 0.9469152306 0.7547003279
N 0.4134242388 0.9839797641 0.4398852433
N -0.8038544203 0.7622857629 0.3177018375
C -1.718267773 -2.1888834037 -0.3970804181
N -1.9549422503 -3.2637150013 -0.7122122531
H 2.5814028581 1.1816209141 -0.8343830314
H -1.3094597821 1.6441607109 0.4133125944
H -1.486006779 -1.1716411717 -0.107690925
