13
0
O -1.7665277937 1.6115932052 0.0158358012
C 0.0174494425 -2.7605372477 -0.2395219572
C 0.0419925332 -1.4374961131 -0.1249043494
C -0.7682316395 2.4859639675 0.2089760583
O -0.9182748113 3.6633010741 0.3395485463
C 1.247940091 -0.6778417864 -0.0161304628
C 2.2460027443 -0.0183645907 0.0775071098
H -2.5934549037 2.1127975159 0.0038701596
H 0.9291744682 -3.3447131717 -0.2558255099
H -0.9225801992 -3.2912714404 -0.3183077617
H -0.8809316347 -0.8662290159 -0.1109336202
H 0.1928599001 1.956383462 0.2273809453
H 3.1416998028 0.5515121411 0.1569290407
