13
0
N -1.8909092988 0.3451874959 -0.3712275931
C -0.6933435467 0.1010469521 0.4069159254
C -0.04284926 -1.2519142447 0.0376062771
O -0.570457636 -2.3253045473 -0.0746588064
N 1.2976359196 -0.9879118674 -0.1371970243
C 1.563023527 0.3812638058 -0.0228510072
C 0.4652399496 1.063824494 0.2853175216
H -1.6635691752 0.5073358079 -1.3434527521
H -2.3812450852 1.1587171177 -0.0278024813
H -0.9954506882 0.0041950711 1.4563212908
H 1.9481545553 -1.6881640896 -0.4430508709
H 2.5700308198 0.7421076501 -0.1735739807
H 0.4036449187 2.1289973545 0.445964501
