15
0
C -0.365644269 1.2123710483 0.2458869031
C -0.738594102 -0.2330462802 0.5487238338
C -0.8596904451 -1.1518993381 -0.6692828598
O 0.4344871791 -1.7477326545 -0.4310877227
C 0.609578081 -0.9612177608 0.7738131083
C 1.7576853711 -0.0999936606 0.322928638
C 1.1006820994 1.1132118103 -0.2201218532
H -0.4329487228 1.8167729418 1.1539194436
H 1.7110863172 2.0061307105 -0.0679570502
H -1.0203751081 1.6723228859 -0.4974591156
H -1.5151570053 -0.352363985 1.3008149409
H -0.9050571343 -0.6593742928 -1.6457515099
H -1.6429122858 -1.9109757387 -0.6094259393
H 0.7678345045 -1.5654992648 1.6679825681
H 1.1807195201 0.9313225785 -1.3057713852
