19
0
C -2.1204147596 -0.0623780428 0.7970395606
O -0.7197055769 0.1308244838 0.6144608259
C -0.4659450228 0.1632222534 -1.1781649593
C -0.2843496079 1.3864797512 1.1387022059
C 1.0242903597 0.0491345669 -1.342235684
C 1.7754018915 -1.1587550795 -0.791561659
O 1.843915272 -1.1708371058 0.6245029697
H -2.6665257991 0.6696283993 0.1986593805
H -2.3567112973 0.0332726951 1.8578308402
H -2.3544253337 -1.0667122411 0.4523747332
H -0.872306434 -0.8589671594 -1.2968045533
H 0.798547129 1.4094048514 1.0539844127
H -0.5734934235 1.4486614779 2.1889579271
H -0.7300076966 2.1926821184 0.5526141834
H 1.5423979375 0.9698053602 -1.0514038541
H 1.0951129469 0.0237130895 -2.4407835572
H 1.3067196951 -2.0814391316 -1.1628035772
H 2.812681383 -1.1543720815 -1.1360276748
H 0.9411393367 -1.1652112056 0.9515194798
