14
0
C -1.7861732291 0.0326194123 0.48032437
N -0.4002218294 -0.1227348092 0.0783404597
C 0.1787521859 -1.2157156013 -0.2960562481
C 1.5921086317 -0.8783409549 -0.6031422228
C 1.7732733041 0.5980954694 -0.3545163406
C 0.5463646591 0.9534196963 0.043103187
O -0.0074413286 2.1407567344 0.4314651137
H -2.2721669345 0.742870886 -0.1859882821
H -1.818416868 0.4327383458 1.4919139639
H -2.2910439817 -0.9299669471 0.4384782742
H -0.3579701425 -2.1541592644 -0.3400219884
H 2.2595222773 -1.4935182418 0.0136390534
H 1.826053037 -1.1624938312 -1.6368772949
H 0.7102072187 2.7776281057 0.3717879547
