13
0
C -0.9924379356 -0.7150389152 1.3341120206
C -0.5303092243 -0.6465638771 -0.0950935488
N -1.1491354201 0.4159053597 -0.9370941398
C 0.2236488308 0.4696936207 -0.6270431755
C 1.3085077349 1.1912693375 -0.7944601339
O 2.5286202867 0.9288931959 -0.239659791
H -1.1309661867 0.290507608 1.7309298851
H -0.2604483245 -1.2371715342 1.954271788
H -1.9408278956 -1.2510545534 1.4053590729
H -0.3764269937 -1.6077203666 -0.5824791083
H -1.31899183 0.0952950575 -1.8844922988
H 2.4598142262 0.1429688472 0.3077201427
H 1.3204077318 2.0825862198 -1.4077837128
