12
0
C -0.3972893001 -1.8525398597 -0.8562829218
O -0.5200584554 -0.5181577496 -1.3163317543
C -0.1468623319 0.4640804657 -0.512021841
N 0.3226105615 0.2043424653 0.7205615528
O 0.65325826 1.3622702983 1.3257032457
C 0.3063185074 2.3101603529 0.3650534844
C -0.1965152371 1.8393721834 -0.7965751113
H 0.648310568 -2.104536153 -0.6512958692
H -1.008905823 -2.018828356 0.0359165546
H -0.7604960053 -2.4875211059 -1.6594235496
H 0.5047987625 3.3050284158 0.7386065395
H 0.6133124932 -0.6246779572 1.2074086699
