11
0
N -1.8168031048 -0.6092338794 0.3262824188
C -0.7824658177 0.0949004197 -0.185818344
C 0.5936328285 -0.0561408129 -0.6577711873
N 1.6520504655 -0.1989615558 0.392715777
N 1.4590796231 -0.2992603809 1.5754465308
C -0.2517219613 1.1567926286 -0.711069952
H -2.5806716333 -0.0631311903 0.688351962
H -1.5484001509 -1.3714572753 0.9255042451
H 0.8854511685 -0.6253839613 -1.5452101685
H 2.6097980692 -0.214963278 -0.0216261232
H -0.3003094868 2.1812732856 -1.0275341585
