13
0
C -1.9899485493 0.1101817007 -0.4892345133
C 0.0196630323 0.0962238752 1.073392262
O -0.6093925145 0.449945742 -0.3740537126
C 1.4530283291 0.1898821776 0.7094056366
O 1.7256719438 -0.5771597664 -0.5128609965
H -2.4952724923 0.6410256896 0.3128575088
H -2.130932068 -0.9650945695 -0.3658191267
H -2.348843985 0.44037554 -1.463180217
H -0.2362672919 -0.9765655745 1.1062600868
H -0.0350257606 -0.0426650049 -0.9956446991
H 1.7690146671 1.2233316848 0.5295323934
H 2.0311281609 -0.2178675235 1.5443622378
H 2.5557675284 -0.2883439709 -0.8970418602
