12
0
C -0.5566851833 -2.6465943258 -0.6318959177
O 0.1338119639 -1.4163000322 -0.8042804656
C -0.1824843687 0.7331625658 -0.3251158965
N -0.6378786794 -0.395035177 -0.304899326
O 1.1803115931 1.8604707464 1.9006131235
C 0.8900561368 2.5114768371 0.9318742643
C 0.1846179027 1.9918506756 -0.255299115
H -0.7381042408 -2.8424327076 0.4262662831
H -1.5014335312 -2.6404976771 -1.1786831122
H 0.1089944733 -3.4030862626 -1.0425742196
H 1.1448950735 3.5872492645 0.872187763
H -0.02790514 2.6585000929 -1.0820803811
