12
0
C -1.1342765805 -0.0386501919 -0.3144691502
C -0.3065161845 -0.9341697969 0.5915681142
C 0.2773866313 0.3115268692 0.0209733129
O 0.4994372259 1.3143812185 0.9625321751
N 1.2574867555 0.3246406206 -1.0193264098
H -1.907161031 0.5553655988 0.1541474017
H 0.6581432119 2.1219505656 0.4652386986
H -1.3694597826 -0.3940595582 -1.3107070819
H 0.0340018596 -1.8804771735 0.1913678886
H -0.5475471667 -0.9347354756 1.646214765
H 2.1122457207 -0.1372218144 -0.7400740508
H 0.9182413404 -0.081077862 -1.8773716635
