14
0
C 2.2956787738 -0.3789280293 1.0301412339
N 1.4044414867 0.4728589607 0.51884205
C 0.4694993578 0.2819087412 -0.3965215433
O 0.1453951784 -1.0221230002 -0.7799463237
C -1.2046889691 -0.5899410504 -0.9962217
C -1.8348463435 -0.1361433773 0.271488746
C -0.9194708519 0.8010276494 -0.5053886226
H 1.4687458043 1.4336938114 0.8250926579
H 3.1174597311 0.0316444592 1.5905890931
H 2.2749543475 -1.4006059348 0.6920179944
H -1.7106533563 -0.9532866601 -1.8785857098
H -1.5038085936 -0.5647743447 1.2101280334
H -2.8904721223 0.0996114099 0.2066089947
H -1.2417254429 1.7504523648 -0.9062079038
