16
0
C -1.5173985652 1.006411288 0.8497005116
C -1.8897432832 -0.4008440521 0.4316187377
N -0.964760203 -0.8310899739 -0.7653277447
C 0.4585444476 -0.8651774677 -0.4779016709
O 0.9952677304 -1.8102156702 0.0148358649
O 0.9985098036 0.300645768 -0.7843861812
C 2.3689950778 0.4639637668 -0.3972806038
H -1.699109814 1.7339440317 0.0494036845
H -2.19662707 1.2777507524 1.6608283684
H -0.4944932972 1.1894650975 1.2247925405
H -1.5967632279 -1.1192311929 1.2068786728
H -1.2680817774 -1.7663351014 -1.0148351172
H -1.1641287637 -0.1951677444 -1.5323158796
H 2.6301428938 1.4810207822 -0.6733099863
H 2.4719232517 0.3178802213 0.6769029828
H 2.9950997967 -0.2533125053 -0.9263041796
