9
0
O -1.090784434 1.3515947834 -0.5664121085
C -0.3711093572 0.2782737935 -0.0753363276
C 1.0515999841 0.3092098922 -0.0954508523
C 2.2493838876 0.3813069073 -0.1036079885
C -1.0185112014 -0.7932349456 0.3416031542
N -1.6031170019 -1.7518715456 0.8053405618
H -0.8305187787 2.1373153276 -0.0781423981
H -1.8681574798 -2.4762416693 0.1408943151
H 3.3122543812 0.4363124566 -0.116346356
