14
0
C -2.3719839949 0.0132724432 0.050276993
C -1.0724314721 -0.2611095333 -0.170631947
C -0.4034139969 -1.4525209759 -0.5872744139
O 1.0192419873 -1.2413087281 -0.2030430296
C 1.2368804217 -0.0298870345 0.0483093986
N 2.473135855 0.4036176845 0.2879626163
C 0.0102653692 0.8033450792 -0.0532601658
H -0.1114895902 1.4971989009 0.7779999388
H -3.1339529341 -0.7456168659 -0.0680983045
H -2.696931814 1.0144462257 0.3018535004
H -0.6860395622 -2.4344377671 -0.232406525
H 3.2404921347 -0.2444912553 0.3036688201
H 2.6424313694 1.3700066134 0.4898115905
H 0.0813602272 1.384337213 -0.980837472
