15
0
C -1.3482378364 -0.8966331691 0.1269724269
N -0.2549081296 -0.2666725235 0.0241403204
C 1.0684695034 -0.8979366585 0.3328353188
C 1.8899622366 0.1505293559 0.0704527095
C 1.180596839 1.3548721744 -0.3658230547
C -0.1343169283 1.1083270723 -0.3968465048
N -1.2965496419 1.8239700383 -0.7200676988
H -2.2744234877 -0.3841650857 -0.1127333346
H -1.2991573588 -1.9276853902 0.4534443003
H 0.2183029852 -4.0858135545 1.6522853041
H 0.5247243486 -3.4525496838 1.3898103789
H 2.9650333844 0.106793013 0.1731751352
H 1.6268980451 2.3051524413 -0.6285575508
H -1.4669443375 2.6122325635 -0.1142078574
H -1.334718622 2.1181584066 -1.684307893
