14
0
O -1.4566004226 -1.0314157925 1.2721242899
C -0.5068557303 -0.0370282939 -0.7218112516
C -1.2105939951 0.1831329366 0.5924766887
N 0.3123235977 0.9864921721 -1.3303704205
C 0.9772668922 -0.2017216812 -0.8135568161
C 1.7875809435 -0.0907188076 0.4240700809
O 1.8185441246 0.8955003887 1.1148288256
H -2.121404074 -1.5302013403 0.7943771059
H -1.0802464851 -0.6171047023 -1.4418841113
H -0.5972288527 0.7917697053 1.2567983519
H -2.1432009338 0.7306018936 0.408501327
H 0.4729255293 1.7436269707 -0.6687039057
H 1.3667963469 -0.8888762788 -1.5572063966
H 2.3827560593 -0.9851041706 0.685871232
