19
0
C 2.5963267016 -0.2198943479 0.1521277347
C 1.364262091 0.1353594147 -0.6689469209
C 0.1813273889 0.5675942813 0.1678626765
C -1.0863446863 0.9326514554 -0.5810625175
C -2.1792457544 0.3258027462 0.3030815608
C -1.5168322951 -0.7547389391 1.1216608999
O -0.2420797145 -0.5736186494 1.0177597972
H 2.9380475799 0.6365759688 0.7382922245
H 2.3820872322 -1.0349119091 0.8439345094
H 3.4184993838 -0.5301089619 -0.4940257877
H 1.5937835617 0.9506398891 -1.3620259747
H 1.0549019705 -0.7169573905 -1.2820208931
H 0.4767659738 1.3484560652 0.875404718
H -1.1838609738 2.0090299738 -0.714820615
H -1.0880014459 0.465763833 -1.568642723
H -3.043305712 -0.0676131193 -0.2317910925
H -2.5723670488 1.0367634066 1.0411931012
H -1.5922003459 -2.5606231635 -1.000834544
H -1.4888139065 -2.4559245532 -1.7326531537
