14
0
C 2.2934178465 0.4928157002 -0.013439546
N 1.0783145578 0.0526506083 0.688377232
C -0.0803794243 -0.472131779 -0.3201677408
O 0.3419986847 -1.2388622553 -1.1520261761
N -1.1596540524 0.1066970111 0.083996951
C -2.3169004921 -0.2006210923 -0.6177344144
N -3.4255726497 0.3228435502 -0.297145385
H 2.0518783946 1.3770112613 -0.5995669545
H 2.595294438 -0.3082413655 -0.6842872151
H 3.0856911652 0.7207463334 0.6974734148
H 1.2820126411 -0.7193846868 1.3171389451
H 0.620124054 0.7896777671 1.2189808696
H -2.2015914731 -0.910595886 -1.4470553943
H -4.1528406904 -0.0181021668 -0.9192275863
