16
0
C 2.202530878 0.0790160371 -0.5932775764
N 0.9635610084 0.1794411559 0.1532182216
C -0.9535186116 -1.0713062174 1.073993089
C -1.7170914405 0.0137474922 1.1398298233
C -1.3908062286 1.0167227596 0.058287897
C -0.2226147641 0.3726323169 -0.6642231341
C 0.0404984317 -0.9450857246 -0.0273962004
H 2.6016282347 1.0813180209 -0.7596999669
H 2.0886656318 -0.4137460467 -1.5709122073
H 2.9297974244 -0.4857373078 -0.0075628818
H -1.0051792676 -1.9208472383 1.7421504527
H -2.4748311371 0.1951508858 1.8921127855
H -1.1154053948 1.9893596559 0.4751789225
H -2.2405853592 1.1757003136 -0.612465851
H -0.0840179121 0.5220025556 -1.7297366667
H 0.3880565066 -1.8051276586 -0.5892727069
