10
0
N -1.8453368528 -0.19746204 -0.1819551185
C -0.5550109522 0.2467938527 -0.0674531172
N 0.3458340939 -0.8353757513 -0.1456612829
C 1.5406310558 -0.7079862051 0.0795411063
N 2.7021059651 -0.7286534153 0.4032656715
N -0.1387297388 1.4402557329 0.0443198767
H -2.5889120279 0.4269356082 0.0685673331
H -2.0081612799 -1.1790634817 -0.051045128
H 3.4371462411 -0.4763227855 -0.2382090761
H -0.9045325046 2.105019485 0.0788007351
