16
0
C 2.1264544744 -0.0526325704 -0.2574627447
C 1.3700099796 0.8264251396 0.6645406493
O 0.075468 0.6844470783 0.7929871001
C -0.4478992684 -0.6266006883 1.1053053815
C -1.8702329342 -0.434755617 0.5995442258
C -1.6057914042 0.4002328697 -0.6018088788
H 3.1263438968 0.3465290792 -0.4232404096
H 1.5906153088 -0.0725371463 -1.2273535183
H 2.2310526832 -1.0896891099 0.0692377898
H -0.2728731307 -0.8219956499 2.169570158
H 1.6830482085 1.8559899434 0.7968095015
H 0.0667221177 -1.3794488722 0.5074408543
H -2.3486570582 -1.4010931459 0.4132426167
H -2.4659720151 0.1026555258 1.3385198319
H -1.2994607577 -0.0945363085 -1.5172871227
H -2.0950651006 1.3572424723 -0.7185784348
