14
0
C -1.2863342863 -0.0775538756 0.9859485391
C -0.3560326771 -0.8526293871 -1.1905624211
C -0.2222963883 0.1872734728 -0.0751242817
N -0.3961254854 1.5337505032 -0.6189859087
C 1.1800677898 -0.0233249292 0.4341130245
C 1.7068666453 -1.0049662347 -0.2623282716
O 0.78669478 -1.4859704487 -1.2375443969
H -2.2798129923 0.0112436806 0.5440850096
H -1.1887034614 -1.0815604786 1.402441006
H -1.187041188 0.6547212683 1.7880880318
H -1.2977047105 1.5925164284 -1.0790240551
H 0.3064660366 1.7232090587 -1.3240674442
H 1.6510037974 0.5292323403 1.231770015
H 2.6606511402 -1.5078143984 -0.2538408469
