14
0
O 2.031239822 -0.5175378336 1.2752364123
C 2.0396907479 -0.3102725468 -0.1113146179
C 0.7231951523 0.1687390356 -0.6766933801
C -0.2983214499 0.513451491 0.046382124
C -1.4076130314 0.8405954028 0.7416059704
C -2.6346407585 -0.0019628895 0.2679619175
N -2.0457080156 -0.3357814623 1.4426416715
H 1.6325478872 0.24811887 1.6969616554
H 2.823051048 0.4024891672 -0.4064304778
H 2.2941536095 -1.2698796813 -0.5681801843
H -1.5693765445 1.8153387679 1.1766066551
H -2.562666608 -0.7181028092 -0.5609506237
H 0.6729387145 0.2328215355 -1.7641048778
H -1.4737965734 -1.1882380473 1.4801167555
