14
0
C -1.6901692279 -1.038384616 -0.4132889577
C -0.8894609586 -0.8937624118 -1.4583006841
O -0.0617791068 1.7792394556 0.5510648866
C 1.2081211018 1.1905228925 0.4369883129
C 1.3133235275 -0.0915510578 1.2346469553
O 2.0135061602 -1.0182087287 0.9339105847
H -0.6878795374 1.220223091 0.0789525681
H -1.3550950946 -1.5360119567 0.4902586213
H -2.7141619904 -0.6815761457 -0.4243498977
H 0.1293949125 -1.2658230854 -1.4449951409
H -1.2261354788 -0.4112789275 -2.3691356502
H 1.9305495194 1.8989287593 0.8546955007
H 1.5005703442 0.9900839005 -0.5991793728
H 0.677146829 -0.1143811691 2.1451782738
