12
0
O 2.4609163673 -0.1928336017 1.1061731609
C 1.5884371092 -0.2689473269 0.3028278575
C 0.7735504858 -1.1117296708 -0.5734150886
C -1.7698622165 0.3193117404 0.5149609294
C -0.6625909225 0.9848062808 0.2271778595
C 0.5290316293 0.4236900561 -0.4547118856
H 0.0615240215 -1.7815457971 -0.1046551782
H 1.1955188094 -1.4752593489 -1.5026881302
H -1.9026445294 -0.7221499804 0.2439061297
H -2.5914932657 0.7988061977 1.031305167
H -0.5758859121 2.029270455 0.5128539942
H 0.8889404236 0.9997919958 -1.3037838158
