16
0
C -0.3696446786 -0.8999261616 0.3838478998
C -0.6000051127 0.4424814528 -0.2974463367
C -1.5951848349 1.3616709214 0.3710014955
O 0.6791206455 1.0609332215 -0.2877929303
C 1.6907671484 0.0669192295 -0.365343478
C 1.0051865886 -1.2926827447 -0.1528914503
H -1.1465482625 -1.6305858646 0.1566506124
H -0.3403294308 -0.7548666366 1.4674877257
H -0.907889797 0.2675049724 -1.3412497011
H -2.5914625029 0.9150116507 0.3634294565
H -1.3022613638 1.5486388315 1.4060197749
H -1.6429222934 2.3182554667 -0.1504292273
H 2.4319279772 0.2820272686 0.408667731
H 2.191877829 0.1196402834 -1.3375227864
H 1.5635968289 -1.9363155123 0.5263926376
H 0.904561259 -1.8229303787 -1.1019334236
