14
0
C -1.6275446965 0.2441532562 0.4879000377
C -0.4266943694 0.253081157 -0.4612653479
C 0.483337287 1.4554560025 -0.3948849817
C 1.7762152632 1.1860222315 -0.1063046267
N 1.7151635058 -0.3065496685 0.0367679144
C 0.5495976858 -0.8207175524 -0.1500671668
O 0.2076137541 -2.0963282394 -0.0836284139
H -2.3067307096 1.0528132517 0.2204635365
H -1.3004435883 0.4076902296 1.5156187121
H -2.176527984 -0.6978591998 0.4352565449
H -0.7792733398 0.0701099175 -1.4855536611
H 0.1030095275 2.4512975555 -0.5787749923
H 0.956651636 -2.6579088037 0.1403391408
H 2.5430640282 -0.8379641378 0.2602863042
