13
0
C 1.7724379093 0.0791258968 0.0190428116
C 0.4641345594 -0.6616418796 -0.2630760323
C -0.5226369755 -0.4356783533 0.8419722929
N -1.6262767176 0.1720114249 0.7792820086
C -2.1036222741 0.8036389906 -0.3583672137
O -1.6597036386 1.8224996602 -0.8167557633
H 1.605523389 1.1566754608 0.0349748902
H 2.1963823501 -0.21610055 0.9811897474
H 2.5097990069 -0.1420626771 -0.7527730562
H 0.0472943316 -0.338454363 -1.2175158693
H 0.6570561183 -1.7373215469 -0.3261213636
H -0.2404555046 -0.8328406416 1.8208199694
H -3.013875554 0.3226905783 -0.7591624217
