11
0
N -2.1516681906 -0.166581737 0.1372826821
C -1.6465023413 -0.9408953151 -0.8412527031
C -1.1954807412 -1.5976241173 -1.7393276579
N 2.9239299151 1.5486421498 1.5031950416
N 1.9958589742 1.0221634581 0.8935500961
C 1.0183448633 0.4990251534 0.4768418941
H -1.4682234525 0.4365095574 0.5767331956
H -2.7292753913 -0.6518198311 0.8049871397
H -0.8319533901 -2.1700098347 -2.5579698125
H 3.2209236017 2.3864794234 1.0033505956
H 0.8812431526 -0.2889549069 -0.2500274711
