11
0
N 2.2433272857 0.0606458279 0.6703158515
C 1.0415233213 -0.0153480734 0.3020942881
C 0.0155820743 1.0125277003 0.0300667339
C -1.1036966355 0.4068247119 -0.3353593832
C -0.8787552539 -1.0703289557 -0.3243714783
O 0.4701873523 -1.2294238715 0.0822844613
H -1.0133298989 -1.5231148466 -1.3117939371
H 2.5124782423 1.0306761038 0.7898694605
H 0.1975186189 2.0725373349 0.126504984
H -2.0442292771 0.8654203396 -0.606805551
H -1.5329448293 -1.5906392714 0.3822685703
