14
0
C -1.6596723535 -0.4552677674 0.3851247991
C -1.7160862376 0.4236366941 -0.829175054
C 1.0480150342 1.6570073482 0.1676382964
O 1.1469033572 1.2314574303 1.2866820346
C 2.0487576326 -1.5911296245 0.5491012005
N 2.2713901552 -2.4909373563 -0.1224853665
C -0.9511638356 -0.6071712184 -0.9286671578
H -1.1047185754 -0.1247396077 1.2626499605
H -2.4999277156 -1.1076683844 0.6151154919
H -2.164918248 1.2923208118 -1.277969211
H 0.4863151514 2.5811748536 -0.051043263
H 1.5180733762 1.1520993453 -0.6950895108
H 1.8258824902 -0.7210089124 1.1469166329
H -0.2912812314 -1.2291946122 -1.5082718527
