14
0
N 1.8544559408 0.3557133264 1.8224350422
C 0.7396582182 0.3441402986 1.0135284086
O 0.3944274675 1.6109192331 0.6853922547
C 0.0592027264 -0.7496532757 0.6411219808
C -1.1713923458 -0.713776181 -0.175320849
C -1.2369160389 -0.0309789798 -1.4802549967
O -1.1614818062 -1.4343073891 -1.4052720652
H 2.4261003148 1.177795301 1.7233919879
H 2.376397727 -0.5025409212 1.8444513398
H 0.3979526045 -1.7154987765 0.9935176363
H -0.4215876418 1.5835449091 0.1784510986
H -2.1198392315 -0.8316568519 0.3487431597
H -0.3451210983 0.4534274291 -1.8715634599
H -2.1835198367 0.368850878 -1.8358735378
