16
0
C 1.6399182756 -0.8860737045 -0.2868156786
C 0.747939048 -0.4298816602 0.8615917545
C 0.0359898306 0.8986118091 0.6062633237
C -0.8990324342 0.8832604377 -0.6074557029
C -1.9884682488 -0.1394431573 -0.4516899897
O -2.2340090529 -1.0115661528 -1.2392344791
H 2.1941703526 -1.7857809704 -0.0153401994
H 1.0592690656 -1.1199661933 -1.1810715284
H 2.3681640285 -0.1142927251 -0.549858751
H 1.3465801571 -0.330251184 1.7711501506
H -0.5378511369 1.1772972969 1.496040256
H 0.7776033149 1.6894136692 0.4617359039
H -1.3840352476 1.8617441794 -0.6982221724
H -0.3655413779 0.6880646914 -1.5383619495
H -2.5839924047 -0.0499061099 0.4845501597
H 0.00668583 -1.2078902263 1.0743019028
