15
0
C 1.5797378313 0.2587241094 -1.161033995
C 0.6207599897 -0.8983334307 -1.0350808375
O 0.9532391446 -2.0256536141 -1.3012854458
C -0.1810375425 0.1104529219 1.7132494198
O -0.879621415 0.4471762729 2.7659120466
C -0.8085327512 -0.5997839611 -0.6118351913
C -0.9824552674 0.4403120498 0.49526307
H 1.1135396811 1.1098261585 -1.6633063664
H 1.8707535638 0.5814984992 -0.1586058337
H 2.4644278845 -0.0604451817 -1.7072021326
H -0.352912334 0.2632275962 3.5517491723
H -1.2611799912 -1.5495941765 -0.3262544382
H -1.3325034511 -0.2546251337 -1.5100387391
H -0.5676452342 1.4050176354 0.1694852647
H -2.0427721081 0.6100132544 0.7155750063
