13
0
N 1.4653250733 -0.7699644651 2.4463142551
C 0.9002384995 -1.0745690645 1.4966316546
C 1.0262560861 0.6631613566 -0.9040041288
C 0.0340887076 -0.4108035878 -0.753185176
C 0.1461438991 -1.4869316661 0.316978168
C -1.0694225105 1.767500878 0.0575738933
N -0.1465222201 0.9776439873 -0.3785058521
H 1.5392648572 1.138009056 -1.7236155908
H -0.6269969706 -0.7155401455 -1.5702412392
H -0.8456405952 -1.8134108668 0.6411838782
H 0.6399802704 -2.3567693277 -0.1230360429
H -1.9691413125 1.3354045044 0.4663670145
H -0.8916187842 2.8326093412 0.0579111664
