12
0
C 1.236452285 0.258279209 -0.2963897857
C 0.2106877144 -0.8129457434 -0.1022829755
C 0.6251260298 0.3105584236 1.0662206791
C -0.75207469 0.0148726603 1.1775100985
O -1.2500955446 0.7629381367 -1.2310548678
C -1.1603663051 -0.2485060952 -0.2564350485
H 0.9770179307 1.0015712342 -1.0375653672
H 2.2735587284 -0.0584322276 -0.3008655241
H 0.4540986612 -1.8546984004 0.0396734877
H 1.2679219985 0.1928435838 1.934154664
H -1.8554289823 1.4282351276 -0.8997142643
H -1.980320826 -0.9575809089 -0.3474540961
