13
0
C -1.2935026978 -0.9447726779 0.4373733773
C -0.1314593366 -0.096881797 -0.0070708327
C 1.3291927929 -0.2544375271 0.6412410243
C 1.1222612915 -0.6747063621 -0.733677514
C -0.2537314636 1.2233531491 -0.2523123355
N -0.3891296632 2.3870710575 -0.5183408973
H -0.8957813988 -1.8976779341 0.7840298394
H -1.8165989654 -0.4810439534 1.2742856235
H -2.0041330879 -1.1198453727 -0.3725817981
H -0.0611390007 3.1162496916 0.1050098734
H 1.8548942835 0.7025827236 0.7268561696
H 0.9369952437 -1.7310586367 -0.9172933177
H 1.4827070023 -0.1425463609 -1.6147772122
