12
0
N 1.9114594512 -0.1907656797 -0.0033126089
C 0.5458367007 -0.1083650811 -0.2937873327
N -0.0860979023 -1.4058767521 -0.684800516
C -1.0896737066 -1.1616836364 0.0643394674
C -0.7084124445 0.1932529766 0.6087838982
C -0.850058997 1.2878242212 -0.4210696005
N 0.1554876056 1.0410551479 -1.1669499201
H 2.3012295872 0.6800778825 0.322732584
H 2.1382717796 -0.9556262829 0.6134622101
H -1.9606963061 -1.7981645136 0.1959349451
H -0.7182713202 0.4045053007 1.6745730718
H -1.5864834475 2.0717254172 -0.5759051985
