13
0
C 0.4331466793 -1.4847821999 -0.2163809184
C 1.0756377807 -0.0934720911 -0.4889697384
C 0.5286276698 1.0757387148 -0.1537159366
C -0.795607719 1.1480858419 0.5837564142
N -1.3428006388 -0.2146876034 0.4779077625
C -0.3321582144 -1.0071019105 0.9568881458
H 1.2080905734 -2.218611514 -0.0019227848
H -0.1447974527 -1.7924972324 -1.1013396837
H 2.0565586009 -0.1135049281 -0.949971327
H 1.0442756553 1.9980896756 -0.4014745645
H -1.4854452055 1.8701406948 0.1392991599
H -1.5425077019 -0.3566288258 -0.5204741166
H -0.6411160272 1.3984663782 1.6343325877
