13
0
O -0.4598728073 0.1602018354 1.5083550905
C -0.8521141605 -0.9868758605 0.7641687738
C 0.3120784104 -1.2190519419 -0.2169622857
O 1.266175347 -0.2286789622 0.1420738567
C 0.5421143638 0.7838361203 0.7670071416
N -0.0614232607 1.6361010833 -0.2333052516
H -0.6381905855 2.3399812916 0.2076950619
H -0.9901030029 -1.8077876156 1.4681570145
H -1.7899781931 -0.8015032372 0.2362652045
H 0.7854809478 -2.1937600806 -0.1026433467
H -0.0068044102 -1.0876084782 -1.2531198923
H 1.2124524493 1.2955430692 1.4653153647
H 0.6525409022 2.0954687765 -0.7828927321
