16
0
C 1.2873679757 0.8707911047 0.0480448988
C 0.0916830594 0.4511090441 0.8885947726
C 0.2887492655 -0.9320186856 1.5163155706
C -1.2009919349 0.4666756474 0.1215007878
N -1.2697100359 0.7329256895 -1.1113586133
C 0.2815522419 -1.413131106 -3.0055086575
O -0.6322276965 -1.432995855 -3.6593743375
H 1.450463684 0.1673335588 -0.7700340498
H 2.1897849868 0.8983263622 0.6620861582
H 1.1359029277 1.8554276656 -0.3942356582
H 1.1711277206 -0.9391156962 2.1581503648
H 0.4330840969 -1.6870101621 0.7395373371
H -0.5696780726 -1.2290938577 2.1233069785
H -2.0893892642 0.2147513069 0.7176092012
H -0.0411787542 1.1696921459 1.7086860743
H -2.2297722 0.6820558377 -1.4441458276
