12
0
O 2.3148616143 -0.3036921272 1.6052617877
C 1.4034111784 -0.1068671451 0.9240748625
C 0.3645771513 0.1375723937 0.1610200199
C -1.0204008112 -0.081789682 0.6331798468
C -2.1686633061 0.4388344139 -0.1012993956
O -1.8460587881 -0.9418328356 -0.1422273448
H 3.5647560337 -0.4007488436 -1.5174108388
H 2.9557139843 -0.7085060568 -1.8164618325
H 0.5671195455 0.4594384559 -0.8518064705
H -1.1262686644 -0.2230445646 1.705752363
H -3.0832085741 0.6925819779 0.4275087176
H -2.0006363636 0.9829780136 -1.0272607153
