9
0
O -0.329857016 1.5494281013 -0.7099523365
C -0.0459902888 0.314464577 -0.2204536559
C -1.1591389308 -0.596598329 -0.0028234086
O -2.2910978245 -0.2458218616 -0.2529240419
C 1.1797936813 -0.0783607845 0.0875830995
N 2.2875189299 -0.5382086842 0.2621859216
H -1.2944246078 1.5613509416 -0.80370816
H 2.6959059873 -0.4256793763 1.1875282659
H -0.9211199305 -1.5992535842 0.3881763161
