11
0
O 2.6290606454 -0.2557447674 -0.8077459525
N 1.8461646935 0.8430675468 -0.6055339186
C 0.6222892777 0.508854778 -0.4458457064
C -0.4651523019 1.4064661575 -0.1272666763
O -1.3770392408 0.5661569128 0.0122109894
C -0.2970245686 -0.6256342411 -0.50072469
H 3.5105670117 0.1066706971 -0.9297810756
H -0.6135160307 2.4822922255 -0.0396749207
H -2.889347702 -1.6497786789 1.5645260244
H -2.889406253 -2.2901243152 1.9448373577
H -0.2638495313 -1.3259693154 0.3349495686
