12
0
C 1.7207405791 0.1785708015 -0.1416889963
O 1.2861975442 -0.5051950762 1.0287715488
C 0.3258185417 -0.1924815482 0.0278174657
C -0.8360657146 0.6865664956 0.3848223131
O -1.878547583 -0.2422573759 -0.0506589851
C -0.4724272636 -1.2712162542 -0.6455052921
H 2.3449574471 -0.4074922885 -0.8117768689
H 2.0421649634 1.2083143124 0.0027620789
H -0.9441271059 1.5789687273 -0.2287308611
H -0.9266978484 0.9358084061 1.4427370702
H -2.1699420858 -0.783833267 0.6884686945
H -0.6153324743 -0.9886439329 -1.6978081677
