11
0
O -1.7226023956 -1.2723215923 1.0646097121
C -1.2417114004 -0.6482316695 -0.1100338176
C -0.4077621384 0.5669412981 0.1959889571
C 0.8343480113 0.6921805564 -0.1721286568
C 2.0710886462 0.8040690222 -0.5565723257
H -0.9667896208 -1.5139517546 1.6039770114
H -0.6645075114 -1.3432270548 -0.7296479483
H -2.1316503379 -0.3571651132 -0.6714806893
H 2.3207826248 1.249634049 -1.5124619459
H -0.8800358479 1.3617392987 0.766613829
H 2.8855919702 0.46063196 0.0704418741
