9
0
O 2.0467879962 0.6790394402 0.1513105227
C 1.4087560439 -0.2923247499 0.4931535752
C 0.244178293 -0.2121891179 1.3854801589
C -1.103272169 0.3044871805 -0.516307221
O -0.9080691167 0.0592726259 0.9086026425
H 1.7692596067 -1.3300390045 0.3135276183
H -0.5248778525 1.1777890568 -0.8077285213
H -2.167151268 0.4788529133 -0.6469791685
H -0.7864055335 -0.5739233443 -1.0772816069
