13
0
N 2.1813984447 -0.0592958129 1.7800626282
C 1.6506775022 -0.1668307363 0.7680022214
C 0.9779198751 -0.2647481447 -0.5334932708
C -0.5326599008 -0.6844482747 -0.3467464614
C -1.3758047076 0.3030580857 0.4487805892
C 0.8228210504 0.9696600637 -1.3216180257
H 1.4374638131 -1.0623548268 -1.1212719689
H -0.9482112266 -0.8457501821 -1.3410892242
H -0.4975351502 -1.6488663968 0.1621392289
H -2.3572674084 -0.1282204315 0.6475534137
H -0.9135345531 0.5362780581 1.4098791325
H 0.8756686691 1.8240103383 -0.6218553233
H -1.532029408 1.2376632599 -0.0931769394
