13
0
N -1.7166315681 0.6969946839 0.5211066979
C -0.4231575208 0.4360737008 0.2208260134
C 0.1001453575 -0.991116194 0.2921679337
O -0.6945266424 -1.9229490985 -0.3893706766
N 1.472960509 -0.9357028031 -0.1711154731
C 1.7319333958 0.3117743988 -0.3304927865
C 0.6221524848 1.2265597357 -0.0995797723
H -2.0869510884 1.6103010601 0.3301744341
H -2.3618083248 -0.0680419277 0.4139168171
H -0.3259430647 -2.0134790725 -1.2719716991
H 0.1128970255 -1.2876832532 1.3484823343
H 2.7243413174 0.6302301486 -0.6387505437
H 0.644097119 2.2994906208 -0.2181222793
