14
0
C -1.3792503462 -0.7873225664 -0.4691271302
C -0.3171046219 0.3109522231 -0.4512702441
C -0.0613998938 0.9010758377 0.9496238543
C 1.0638893415 -0.2103313551 -0.7750360555
C 1.7992363995 -0.1772065697 0.3261978129
O 1.1871277571 0.3573465907 1.4142546975
H -1.1235020047 -1.5782573281 0.2396059398
H -2.3614695301 -0.3908485849 -0.2000728857
H -1.4591192301 -1.2386805298 -1.4601321896
H -0.6178610599 1.1060663964 -1.1385503179
H -0.8322947891 0.6410218357 1.6762236748
H 0.0439249499 1.9888531181 0.9152675684
H 1.371140811 -0.6157424695 -1.7264880415
H 2.8090592168 -0.5225375979 0.4976423164
