12
0
O 2.3448497949 0.9274528981 -0.1976940832
C 1.1922165534 0.6336243789 -0.2802078863
C 0.5212905158 -0.3504512019 -1.1624453805
C -0.7753495549 -0.3375318054 -0.8959032353
C -1.0404983396 0.6601987736 0.1834119648
O 0.2283548371 1.208720588 0.4961148532
H 1.0641604897 -0.945727954 -1.8792741618
H 0.7012292645 -0.9455782897 2.2396610647
H -1.5525699074 -0.9320469545 -1.3556475542
H 0.5213117098 -1.6540078453 2.0923055462
H -1.4633243232 0.2000458018 1.0812231369
H -1.7090780402 1.4624266104 -0.1409472644
