11
0
C 2.2372555364 0.54275968 0.3182436007
C 1.1447423827 -0.127323104 0.6080089907
C -0.1347967163 -0.0779354561 0.0755821846
C -1.3381629811 -0.8241502018 0.3887656391
N -2.4230850712 -0.6104972969 -0.2292506922
N 1.5346634613 1.2267631804 -0.6488995767
C 0.2223181764 0.9176409071 -0.8197121947
H 3.2691580065 0.6601935173 0.5793398466
H -1.2332867035 -1.5721189295 1.1829759864
H -3.1609029276 -1.2198585126 0.1126701
H -0.3578491636 1.432205216 -1.5698288842
