14
0
C -1.3448465078 -1.2357625734 -0.4084028343
C -0.117731169 -0.7758215853 -0.2379778034
C 0.4386046432 0.594198286 -0.4686728969
N -0.1347986642 1.6409274985 -0.9005390451
C 1.8394102893 0.46678822 -0.0761553018
C 2.0186554848 -0.7964236156 0.3050913144
O 0.9028679061 -1.5765641744 0.230785682
H -2.1224267538 -0.5786617463 -0.7722389418
H -1.5965738548 -2.2637515455 -0.1885311627
H -2.53226766 1.4393963116 1.6864443151
H -1.9202859443 1.7392228616 1.3838459664
H -1.1150976604 1.4627170077 -1.112139044
H 2.57355786 1.2536242649 -0.1034991476
H 2.897961031 -1.30955721 0.6641468997
