14
0
C 1.9086565044 0.2293754074 -0.2645060714
C 1.0360890866 -0.6402938604 -1.0480202486
C -0.3922164697 -0.4158648157 -0.9896017472
C -1.2858861733 0.539463528 -0.1389292992
C -1.1865711284 -0.9203014035 0.193161048
N -0.5320416879 -0.5879018228 1.4913164113
C -0.699840751 0.6564043371 1.2312440138
H 1.5266423784 1.2175464761 0.0232136685
H 2.9088231374 0.2992751019 -0.6949479858
H 2.0303833013 -0.3644050016 0.6593066954
H -0.9122502258 -0.6915199498 -1.906331247
H -2.105023208 1.0770293022 -0.5937327086
H -1.9214433489 -1.7077542232 0.1154368763
H -0.392107415 1.4942129246 1.8526735946
