17
0
C 2.0747039766 0.3741140797 0.6823099019
C 0.8366368071 0.1401471336 0.2893714862
C -0.0559334781 -1.0534802189 0.2393516183
C -1.2921027081 -0.7519737899 1.0385510609
C -1.1824595698 -0.1867967237 -0.335702924
C -0.2365982896 1.0138022039 -0.3648617835
O -0.6177226985 2.2320581104 0.2094292974
H 2.7046226101 -0.4142552575 1.0772565539
H 2.4969483625 1.3699314569 0.6143803666
H 0.5305787938 -1.1397707757 -2.6292930336
H 0.2243710592 -2.0629326728 -0.0265901055
H -1.2234680908 -0.1228946623 1.9204158493
H -1.988990255 -1.574281278 1.1419007451
H 0.6749514021 -1.2635395726 -3.3500277902
H -1.8909596874 -0.439863865 -1.1120874642
H 0.0513313711 1.2443342019 -1.3926446946
H -0.8086196053 2.08735163 1.1388659158
