19
0
C 2.2945775527 -0.5331115337 -0.6977126542
C 1.7758017441 0.5967162923 0.1552192961
O 0.20723754 0.7763895804 -0.4787907689
C -0.6450762524 1.5532050742 0.3813185622
C -0.92449573 0.1282857032 0.2132690605
C -0.5776957055 -0.834474286 1.3098205906
C -1.9754810446 -0.309214869 -0.7657844564
H 2.1592090965 -0.4312866629 -1.7840260019
H 3.372929847 -0.5658041001 -0.5069712653
H 1.8987005897 -1.5069971275 -0.3909460242
H 2.1266368943 1.5388345673 -0.2956116317
H -1.2286556159 2.2950841783 -0.1518350382
H -0.1273272699 1.8756866679 1.278057366
H 0.3707522855 -0.5407464611 1.7608801457
H -0.4953074759 -1.8496630605 0.9185917625
H -1.3721765931 -0.8187724157 2.0584306143
H -1.6755577072 -1.2430258848 -1.2437938581
H -2.1413360329 0.4424671655 -1.5369450787
H -2.9152621225 -0.4833638275 -0.2380916202
