10
0
N -1.9112539868 -0.2480113324 -0.9924522387
C -0.7594986035 -0.1767757938 -0.4825051554
N 0.2061662073 -1.1877103448 -0.2854607182
C 1.1350925902 -0.6391887909 0.4016733212
N 0.9068242402 0.6612321589 0.7691769903
N -0.2298357927 1.0289045494 0.0278580714
H 1.67975578 1.307036077 0.6836110355
H -2.0974230304 -1.201057256 -1.2837206684
H 2.0493146916 -1.1317942297 0.7094740682
H -0.8906050958 1.5769519622 0.5587702942
