14
0
C -2.1570567668 0.4740118698 -0.1511213822
O -1.9386342553 -0.8405119192 -0.6755025991
C -0.7498846611 -1.3427616443 -0.8405477929
C 0.5032050218 -0.836357407 -0.6021755712
C 0.7622240518 0.4437630667 -0.0870386855
C 2.2101262909 0.7480585344 0.0225234946
H -1.6709525612 1.2157882105 -0.7812720203
H -3.2389599624 0.5902825861 -0.1411854465
H -1.7284400124 0.5564548516 0.8453607837
H 1.3004309439 -1.5464840808 -0.8576564002
H -0.8393151136 -2.3488728757 -1.2469485481
H 2.9081426834 -0.0917212402 -0.1212421795
H 2.4150581873 1.5006311026 -0.7506892745
H 2.4309721537 1.2598889458 0.9626046215
