10
0
N -0.673753235 1.4492079765 -0.6980999743
C -0.2062414385 0.2166557905 -0.1904879562
O -0.4604998044 0.242370501 -1.5275590154
C 1.6700441709 -1.0373382994 0.0599644109
O 1.1398032798 0.1531513428 0.1951314254
C -1.1730215501 -0.5480774381 0.6981620226
O -0.859276399 -1.0540222773 1.7293083299
H 0.1530349213 2.022002263 -0.8815669006
H 2.7071008419 -0.8728325711 0.4190057225
H -2.2005457869 -0.5516912878 0.2931499352
