17
0
C 3.259876418 0.1441302383 0.3594943348
C 2.0804301274 -0.4533079649 0.3538628056
C -1.552705444 -0.0061432858 -0.2049672684
C -2.1169313806 -0.9926075528 -1.1354212319
C -2.0715155672 -1.2604082062 0.3579837142
C -0.9863160997 1.1299452787 -0.0160004493
C -0.3947993248 2.2745550074 0.1765049455
H 3.8670464916 0.2113519444 -0.5361402181
H 3.6678916724 0.5888162935 1.2601399712
H 0.6873775221 2.3450828459 0.1617294367
H 1.6699394934 -0.8936264408 -0.5476450923
H 1.4681638077 -0.5154226913 1.2462221786
H -3.0799859399 -0.7763426136 -1.5826994121
H -1.4327938411 -1.5425720256 -1.7711085289
H -1.3536264967 -1.9873479562 0.7202000591
H -3.003780439 -1.2255728463 0.9091057154
H -0.9649659995 3.1788319752 0.3545720398
