13
0
N -2.6668703597 -0.320349101 0.5868114939
C -1.657476092 0.1622242343 0.0457756184
O -1.2026532957 1.2576933508 -0.5831800949
C -0.2918847409 0.1182783739 -0.3663677226
O 0.6782427668 0.3129270661 0.5835158147
C 1.9111390166 0.6544313382 0.1315867299
N 2.1630426699 0.838882859 -1.0805185563
H -3.4534072457 0.3243388818 0.561762286
H -1.1787715167 -2.5490480878 1.1045691247
H 0.0486724311 -0.346458613 -1.283293642
H -0.5369453505 -2.9304760932 1.1008622401
H 2.5912978301 0.7290624319 0.9792384644
H 3.1381848865 1.073760359 -1.2220317565
