14
0
C 0.9064146633 0.4942788469 0.2194878918
C 1.1740983454 -0.8736364115 -0.4070096156
O 0.3800904072 -1.9149884494 0.0923041055
C -2.0198387762 -0.4028119341 0.4029644867
O -1.5386430502 0.7671283733 0.6135530729
C -0.3892922362 1.1733475342 -0.1894357212
H 0.9537607121 0.4236399251 1.3099435857
H 1.7155948899 1.1648753668 -0.0872071157
H 1.0765811105 -0.785649477 -1.5003943182
H 2.2112154557 -1.1492947222 -0.2024675568
H -2.8716333982 -0.4725357118 1.1106367635
H -0.5553520246 -1.6719982794 -0.0495718273
H -0.3371774866 2.2494597352 -0.0307071241
H -0.6401496118 0.972415204 -1.2322916271
