12
0
N 1.9035406108 -0.434062806 -0.2601789264
C 1.0564028972 0.3875671937 0.1762523121
O 1.3918212829 1.6640897087 0.4417791004
C -0.390707918 0.1440288389 0.4426730592
C -1.3132118588 -0.1407110482 -0.6828502953
N -0.8536887745 -1.2083361073 0.1914745301
H 2.3308330026 1.7473590816 0.2358048319
H 1.4643956014 -1.3440154682 -0.3775387443
H -0.7937611354 0.6933107 1.2863136328
H -0.9152467999 -0.1750173152 -1.6899242312
H -2.3355820988 0.2093679189 -0.5973496201
H -1.5635568095 -1.4797516969 0.8583913509
