14
0
C -0.3398236998 -0.841596614 -1.2570977988
C 0.1331684553 1.3509867359 0.6493622608
C -0.8226735446 0.2501985479 1.0420767117
C -0.3372387731 -0.945657178 0.2365989524
C 0.9191727467 -0.5255723868 -0.4921932004
C 1.0975502142 0.9125388535 -0.1525397013
H -0.8610197254 -0.0135596715 -1.7232769284
H -0.3688057708 -1.7708467368 -1.8119864435
H 0.0174223432 2.375318422 0.9813504067
H -1.8626475925 0.5078522219 0.8187537954
H -0.7718416845 0.0524518182 2.1175204355
H -0.4132449953 -1.933273508 0.6714902087
H 1.7769482531 -1.1777030676 -0.5946155972
H 1.9009837736 1.5188085636 -0.5520671015
