16
0
O -1.1413998261 0.4192669465 1.3015545888
C -1.0832629747 0.2762986669 -0.1108674846
C -0.3905047935 -1.0382935834 -0.5229707396
C 1.033715248 -0.6224481818 -0.7704785505
C 1.1547369865 0.6955291121 -0.8322488443
C -0.1637851075 1.3898932946 -0.6297271875
H -1.6472884942 -0.3108134609 1.6632766646
H -2.0930484358 0.3518797159 -0.5285943864
H -0.4887815852 -1.7995279463 0.2569554898
H -0.8384607075 -1.4568267264 -1.4309083147
H 1.4921537013 -1.1308617713 2.7682794321
H 1.8415528017 -1.3311843441 -0.9030201055
H 1.0633056999 -0.6842628644 2.3507117362
H 2.0781714382 1.2274203474 -1.0244817425
H -0.1201760088 2.2053485597 0.0947977561
H -0.5354029424 1.8092912355 -1.5702023119
