11
0
N -0.7403548543 -0.8555306957 -0.3159038745
C -0.0161487424 -0.3199713041 0.8932718577
C 1.3683265615 -0.358095954 0.0833040541
O 1.5639614174 1.1297777924 0.4931078586
C 0.1782499498 1.0702966927 0.3000267541
C 0.2153911338 0.1469624028 -0.9116692926
H -1.7420360136 -0.7105140027 -0.4068454462
H -0.2718185462 -0.6696515478 1.8901842624
H -0.4744245122 -1.8185781501 -0.5310703097
H -0.4216755202 1.9784954522 0.4576303863
H 0.2260401265 0.3309613141 -1.9829022502
