19
0
C 2.4924013119 0.3716780503 1.2222788142
C 1.8158327283 -0.1427934221 -0.0268535719
O 0.5238007562 -0.6772479785 0.2764980837
C -0.4306033471 -1.091190445 -1.0938582125
C -0.5398742627 0.2774568664 0.5663313871
C -1.5698757539 -0.4417853974 -0.2807899575
C -2.513254462 0.4392901326 -1.0786717593
H 2.5957490103 -0.4196325082 1.9656151183
H 1.9378877209 1.1994683559 1.6687305565
H 3.4888070996 0.7383087325 0.9708499282
H 2.3606202906 -0.9735680393 -0.4742522043
H 1.6878771435 0.6270814875 -0.7925894061
H -0.4382074408 -2.1814350964 -0.9544902457
H -0.2648507191 1.25030331 0.1505346936
H -0.6972574834 0.3505414599 1.6427547603
H -2.151806884 -1.131868052 0.3438736015
H -3.132662272 -0.1694653056 -1.7401240396
H -3.1839786631 1.0118849249 -0.4314121926
H -1.9432477732 1.1295009243 -1.7037513537
