13
0
C 1.5611162291 0.9967604325 -0.3715123745
O 1.0826924793 -1.7809361725 -0.878508953
C 0.1746473013 -1.1124927013 -0.3952019326
C -1.1451201098 -1.3627750853 0.0087138197
N -1.6760816509 -0.1808625702 0.4853611566
C -0.7910591954 0.7961892101 0.413181177
N 0.3298774782 0.2954184851 -0.1053193253
H 2.2548394916 0.2485089243 -0.7540543524
H 1.9668806243 1.4358976682 0.5401912163
H 1.4156621612 1.772668807 -1.1237772094
H -1.7083014181 -2.27652676 -0.0135743617
H -2.6067632864 -0.0689279324 0.8424652177
H -0.9563681045 1.8143456945 0.7204629216
