10
0
N 1.8789387993 -0.5520708468 0.1151675704
C 0.5640438858 -0.1768676034 0.0750691879
N -0.419178443 -1.0356318226 0.081213959
N -1.5528130847 -0.3063350597 0.1948410378
N -1.1662453535 1.0235722016 0.0724609324
C 0.1280656184 1.2198132236 0.0779885605
H 2.52691254 0.1516774768 -0.1904617105
H 2.0880990791 -1.4930190648 -0.169385939
H -2.297204321 -0.5995094117 -0.4262133796
H -1.8797957205 1.7294559071 0.1596137808
