12
0
O 0.7798375914 0.557249331 -1.1515449132
C 1.6290106538 -0.2167223639 -0.4816722449
O 1.3348239345 -0.6890795276 0.6614685963
C 0.2093592753 -0.4096688882 1.3516122208
C -0.6022702546 0.2674808175 -0.8677688248
C -0.8380931192 0.3724232563 0.636379372
H 2.60959586 -0.4030689783 -0.8851719627
H 0.0084393292 -1.1726912981 2.085631441
H -1.1689297769 0.9970732104 -1.4406791742
H -0.8334466583 -0.7348525088 -1.2355498525
H -0.8339006612 1.4359970085 0.9016859705
H -1.8352771744 -0.0069750589 0.8795313717
