14
0
C 2.2365789325 -0.2587071261 -0.8272923976
N 1.6733148936 0.9815829463 -0.3111085137
C 0.4791270187 1.2122126076 -0.3927296059
C -0.7826112147 1.5647179958 -0.4084618716
O -1.7001048668 1.2442735627 0.5752347238
C -1.6997914988 -1.5637833788 0.024703041
O -0.6396300851 -1.8745562804 0.4903106569
H 2.9720098703 -0.0087153858 -1.5925834793
H 2.7604766515 -0.7578951162 -0.0123042903
H 1.4789049066 -0.9321526993 -1.2336190806
H -1.2028862698 2.1122607937 -1.2385510374
H -1.230804472 1.0349421059 1.3864395936
H -1.7903076147 -1.1411795588 -0.9918071784
H -2.6430742515 -1.6862294667 0.5877454395
