9
0
C 1.054677688 -0.3872134964 -0.4339562829
C 0.0284593697 0.1729165137 0.2038336379
O 0.0902070953 1.0359744565 1.2333857819
C -1.3602816389 -0.1528191522 -0.2232364425
O -2.3481279635 0.2952147097 0.2840464394
H 1.0073463901 1.2040542562 1.4631154221
H 2.0872226314 -0.1900110119 -0.1719685261
H 0.865620301 -1.0708445886 -1.2495624636
H -1.406726873 -0.8618066871 -1.0731605662
