11
0
N -1.178987154 -0.8785297985 -0.3632959441
C -0.6234496141 -0.7506831473 0.8932719562
C 0.6419280666 -0.2766221427 0.141107795
O 1.2792576757 0.9474624542 0.4798705291
C 0.5771473685 2.010023815 0.2382953713
C -0.2131340913 -0.3403200614 -1.0915309217
H -2.0576452969 -1.2885661985 -0.6499226173
H -0.6602485059 -1.6074735791 1.5649510899
H 1.4015625532 -1.0605988919 0.1637271192
H 1.2462128604 2.8256734757 0.5946041507
H -0.288928862 0.2004250748 -2.0206915283
