15
0
C -2.0160976248 0.4249485197 -0.7630670504
C -0.8625309001 -0.3023070332 1.375475466
C -0.8872692924 0.665379236 0.2267846073
N 0.4383331921 0.5498876723 -0.4298875454
C 1.1585230033 -0.3310436748 0.2476960831
N 2.4229563189 -0.6482223366 -0.0765080225
C 0.3955299633 -0.8489791809 1.3341618018
H -1.9540739918 -0.5868944556 -1.1680754385
H -2.9699574422 0.5239382864 -0.2474330607
H -1.9890564758 1.1369844674 -1.5922983081
H -0.9663482768 1.6749205074 0.6472349727
H 0.7641371679 1.0792776133 -1.2188541505
H 2.8839517112 -1.3728257361 0.4397412116
H 2.8569266942 -0.3259195371 -0.9203819285
H 0.8034999528 -1.5970493482 2.0055823622
