16
0
C 1.936484689 -0.0535783261 -0.0218343262
N 0.717094804 0.2550691257 0.0448985363
C -0.2370238684 0.8535899846 1.0686357155
C -0.9733506966 1.4281642032 -0.1702277686
C -0.5127867455 0.0753062894 -0.7717665126
C -1.2340713159 -1.0008690386 0.1142065281
C -1.0258105883 -0.4148346054 1.3234202323
H 2.3118730457 -0.5421079684 -0.9130541224
H 2.5888004387 0.1530843507 0.8175629136
H 0.6090287255 -2.8626370135 -1.9029530423
H 0.2216315869 1.469551844 1.8415279736
H -0.5012486902 2.3100326079 -0.6138669032
H -2.0467982544 1.5423661393 -0.0540961612
H -0.3549503728 -0.0954581425 -1.8340586371
H 0.0735394519 -2.6823292433 -1.406788346
H -1.3110332097 -0.7645532071 2.3068109206
