10
0
O 1.7261763786 -0.3122338657 -0.6718347956
C 0.5178391875 0.0854294281 -0.2531467704
C -0.4964169374 -0.7546425194 0.4380377835
N -1.6114465628 0.1621702105 0.6659695357
N -1.3166151795 1.2889470319 0.2109824548
C -0.0257618496 1.3030088688 -0.3630149574
H 1.8632399138 -1.2402479358 -0.4721231234
H -0.156417187 -1.1453008548 1.4019559205
H -0.8493721059 -1.5992104825 -0.1615397426
H 0.3703543421 2.2056671193 -0.7977993052
