14
0
C -2.0466213965 0.2306113261 0.4041173096
C -0.58531479 0.0826030952 0.1133758726
C 0.4419257877 1.0268485775 0.4275707385
C 1.6768815432 0.6490099269 0.0554147321
N 1.5547637228 -0.6534764436 -0.5748123919
C -0.0594559796 -1.0227407974 -0.5153246443
O -0.36659955 -2.0841120566 -0.9957839083
H -2.4804960617 1.1008741552 -0.0964217906
H -2.2447767024 0.3343113018 1.4746934244
H -2.5830780378 -0.6515633328 0.0539013176
H 1.8236820232 -0.6758129601 -1.5546670212
H 0.2446381357 1.9685513644 0.9243001534
H 2.6347056543 1.1313762398 0.1459759146
H 2.0433276511 -1.4039453961 -0.0943257068
