11
0
N 2.2833882283 -0.217911462 -0.8104676666
C 0.9701776347 -0.0021887575 -0.9747740779
C -1.5985260945 -0.2332018742 2.9781357514
N -1.7762244608 -0.0368268284 1.8415838384
C -2.0146067544 0.2007592903 0.5006490906
N -1.1292162976 0.210776348 -0.4045712233
N 0.1564873958 -0.0383776682 0.0167491302
H 2.9160835735 -0.1751704977 -1.5838378264
H 2.6403432621 -0.401338751 0.1104583865
H 0.6291470812 0.2033153994 -1.9897383215
H -3.0466085682 0.3905848012 0.2367179186
