13
0
O 1.4686273926 -0.5443778595 1.8222467762
C 1.9023367095 0.1634054839 1.017607658
C 2.3870823514 0.9786326197 0.1172802888
O 0.1866052588 -0.9765525315 -1.290975675
C -0.9194470114 -1.3515097567 -0.9919115726
C -1.5921828572 0.6469067557 0.2600982754
C -1.8688652642 -0.5824672421 -0.1548052117
H 2.1207660602 0.811842812 -0.9149470751
H 3.0657564917 1.7601261503 0.4202299084
H -1.2867252428 -2.3319416086 -1.3517619234
H -0.6532726012 1.1196088731 -0.0075027221
H -2.284831121 1.2109317483 0.8718819294
H -2.8050071663 -1.0691064446 0.0974253436
