14
0
C -1.7269355535 0.5456773457 -0.2177594753
C -0.584678673 -0.1559575483 0.4174707299
C -0.0979095603 -1.5544304934 0.4621534856
N 0.5974038457 -0.4121925142 -0.1009310754
C 1.613169548 -0.1345312985 -0.8564937974
H -2.6266755625 0.4447743976 0.3877497596
H -1.5146368463 1.6114162672 -0.3177592047
H -1.9390031532 0.1484215697 -1.2220878202
H 0.8682276307 1.7410898005 1.5425647217
H -0.3844681695 -2.2955898748 -0.2913033196
H 0.2881671289 -1.9672887855 1.3904578204
H 1.668640639 0.8400186628 -1.3186952396
H 1.4173438761 2.2356447059 1.4231292586
H 2.4114908501 -0.8549862349 -0.9383148438
