15
0
O -3.2908023955 -1.1070165055 0.2785257548
C -2.221347263 -0.3395205434 -0.0470107666
C -1.1076507041 -0.7409192226 -0.6437174669
C 0.0340513004 0.1814945952 -0.9604256366
C 1.3094666752 -0.2137232796 -0.2537394977
C 1.9470846392 0.5460196968 0.5864430201
C 2.571224613 1.3162093741 1.428730498
H -3.1226426269 -2.0162718932 0.0176050793
H 2.3375827523 1.2906286408 2.4871027096
H -2.3815035018 0.692470002 0.2458749499
H -0.99212042 -1.7897821294 -0.9121613306
H 0.2209693937 0.1786022068 -2.0401198056
H -0.2276219002 1.2056679797 -0.6886116079
H 1.7078900223 -1.2042329473 -0.4601409851
H 3.343958415 2.0008440251 1.0984880855
