18
0
C -1.5475558698 0.9025762658 0.6723763632
C -0.6203342962 -0.2623277482 0.4763462611
C -1.0444566765 -1.4356598967 0.0220731336
C 0.8029513819 0.0153904052 0.8191026078
C 1.9423370458 -0.789993956 0.2836899733
C 1.7178043536 0.6039868684 -0.2224247555
H -1.2256101237 1.75339807 0.065555525
H -2.5738908531 0.6527860153 0.4038694671
H -1.5354020221 1.2334836932 1.7147152329
H -1.3523408023 0.8984907344 -2.9342127102
H -1.2203740683 0.3945111272 -2.3999604573
H -0.3738471792 -2.2771128112 -0.1002721765
H -2.0851600178 -1.5946329578 -0.2359995692
H 0.937334854 0.4170271662 1.8193316014
H 2.7842357676 -0.9691129264 0.9390479836
H 1.7214633142 -1.6055574903 -0.3917739431
H 1.3176055908 0.7075965956 -1.2233334157
H 2.406956601 1.3835458451 0.0743488783
