11
0
N 2.1860069186 -0.0307146659 -0.2482201084
C 0.9426712015 0.0715083266 -0.0788679614
C 0.2367895971 1.2888042932 -0.5278261658
C -0.9989943567 1.6817043262 -0.5033356101
C -1.2007185717 -0.8422134557 0.4352109454
O 0.204572113 -0.8735024236 0.5401481655
H 2.5228886306 -0.9225185448 0.1071273865
H 0.8585393533 2.0640440714 -0.9857047644
H -1.6005541828 0.1737067964 0.6067722125
H -1.5343317932 -1.2030089623 -0.5394790674
H -1.5895279098 -1.4821927614 1.2242449675
