14
0
C 1.8152951961 0.323179998 0.2274179654
C 0.6342316761 -0.3856976913 -0.4077027398
N -0.5880858634 0.4029658085 -0.2687855363
C -1.8956736266 -0.2593402881 -0.2207639131
C -1.4473841676 0.4514447631 1.0122812734
H 2.0112012287 1.2811069798 -0.2593230419
H 1.6253693103 0.510622503 1.2845662125
H 2.7146515756 -0.2869735664 0.1373238388
H 0.4465969205 -1.3401886471 0.0864595133
H 0.8156334194 -0.5851986457 -1.4688180886
H -1.8088024623 -1.3356913431 -0.3702241252
H -2.6575806447 0.1930782955 -0.8512328142
H -0.5564956016 1.2870338283 -0.7554513899
H -0.9621129608 -0.2788369944 1.6748758454
