12
0
O -1.9488449258 0.3131507443 0.2837450854
C -0.8034612922 -0.386422944 0.6948762623
C 0.2681413542 -0.3763082728 -0.4171967578
C 1.6971698093 1.7808783934 -0.7226635032
C 0.6547303331 1.024414498 -0.7934182248
C 1.4222284213 -1.1716148381 0.0079490924
N 2.2957169645 -1.8162633428 0.3756888935
H -1.9320757926 1.1990774022 0.6478404021
H -0.3739087333 0.0259059955 1.6116226255
H -1.0879752829 -1.4227798522 0.8868174479
H -0.1623314756 -0.8602845281 -1.2981162401
H -0.10106638 1.6698957446 -1.2691140831
