13
0
C 1.3942633991 0.4730967514 -0.7135170563
O 0.618846113 -0.5368714803 -0.0890623604
C 0.2622957346 -0.2928928846 1.1884660593
C -0.5001410375 -1.1255528009 1.8846821437
C -2.1799416013 0.4952310015 -1.0122758963
N -2.3396037528 1.2040722067 -1.8961623417
H 0.854546697 1.4238373282 -0.7379621619
H 2.3510836516 0.6022023617 -0.199680849
H 1.5746678243 0.1425464482 -1.7334275433
H -2.0095657037 -0.1533161412 -0.1758722409
H 0.6290857317 0.6414384096 1.6095764291
H -0.7597845184 -0.8855556999 2.904988078
H -0.8430565375 -2.0632445004 1.4650767399
