16
0
C 2.4470104819 -0.8056487894 0.6173409397
C 1.4240400359 -0.0974804417 -0.154260582
C 0.0675853608 -0.2677646878 0.3510569893
C -0.9247166352 0.8056513782 -0.1148982629
C -2.3662864947 0.38410587 0.0737861559
O -0.7106829073 1.0860531612 -1.4751955674
H 3.3185975387 -1.0975559904 0.0314028468
H 2.7977942831 0.020966884 1.2622942768
H 2.1135417613 -1.6146110636 1.2814464006
H -0.7376475332 1.7074559658 0.488884104
H -0.1664964009 -1.2015021505 -0.2073428169
H -0.034194953 -0.5201299226 1.4178958537
H -2.579221189 -0.5055200539 -0.5233256758
H -3.0384697926 1.1792486567 -0.2492746811
H -2.5735333734 0.1625020833 1.1232068271
H 0.2490088175 1.0343361005 -1.6044698079
