11
0
C -0.2692032255 1.2656236783 0.1638088794
C -1.2876390423 0.4216191893 0.3213867471
C -0.5690181384 -0.7252000476 -0.3513161657
N 0.2835365596 -1.5693754967 0.5561119804
C 1.2642751141 -0.7706151086 0.3882534971
C 0.6238306419 0.2494896098 -0.5296152529
H -0.093281675 2.2916082737 0.4601930643
H -2.2491642255 0.4852567886 0.8128560967
H -1.0310534418 -1.2662509816 -1.1732963903
H 2.2498207398 -0.857594064 0.8401873568
H 1.083483693 0.4847431587 -1.4866758129
