14
0
C -1.1334101626 -1.1480666728 -0.2316257832
C -0.1938679168 -0.8946311276 0.9025562445
C 1.1221084557 -1.036399465 0.8474297197
O 0.7774454666 1.5433569336 -1.6823184977
C 0.3258636021 2.0475852931 -0.5304015763
O -0.8176642087 2.316160969 -0.3074776009
H -1.6978591413 -0.2420302717 -0.4696951653
H -1.8643775901 -1.9167465855 0.0311917523
H -0.5992555443 -1.4762172697 -1.1250518518
H -0.6469106761 -0.5582141023 1.8320478411
H 1.7503766675 -0.8362166086 1.7071328212
H 1.6187791479 -1.3622687149 -0.0609011348
H 0.0160637863 1.4329093328 -2.2679589015
H 1.1544501138 2.1840112895 0.1741791328
