16
0
C -0.1237342735 0.7669861214 -1.8913544106
C 0.0745002666 0.0223710764 1.8370092595
C -1.068322394 -0.7765088158 1.2779261902
O -0.6352418538 -2.0028509871 0.7462120701
N 0.2560942137 1.2334212016 1.5217452948
C 1.1794778069 0.0836682556 -1.6491735171
O 1.3024348923 -0.9982708492 -1.1310006614
H -0.2494723043 1.5171224713 -1.1022552379
H -0.9497106015 0.0591458571 -1.8394176631
H -0.1168805817 1.2835511553 -2.8521881124
H 0.7371714413 -0.5324285696 2.5119673824
H -1.7630491568 -1.0131792044 2.0894816261
H -1.6081401487 -0.1596758476 0.5498545172
H -0.0126567675 -1.8160863046 0.0281664226
H 1.0714543069 1.615153184 1.9967114939
H 2.0855391541 0.6409432558 -1.9567076539
