8
0
C -1.0168667667 -0.5357521491 -0.1884731723
N -0.5188532843 0.5671824202 0.5699681636
N 0.065408753 1.5757074123 -0.363446625
N 1.1521581283 1.0112089975 -0.5210384351
C 0.7682580888 -0.1512697157 0.3143893434
N 0.0521312458 -1.2187204979 -0.3763272408
H -2.0373442152 -0.7126295667 -0.5074477207
H 1.4542610502 -0.4204299008 1.1125826869
