10
0
N 1.8394179406 -0.8799688655 0.5553286422
C 1.2302586502 -0.4188459098 -0.3916522143
N -0.8163554125 0.596427852 -1.1464260853
N -1.5398303494 1.0425500813 -1.9988387647
O -1.6446415916 -0.093163799 3.443151397
C -1.4670711366 0.1580053033 2.364403891
C 0.4843115157 -0.0196315637 -1.3895140796
H 2.5103243089 -0.2586627594 1.0007090635
H -1.0620722898 0.5960062263 -0.1379978663
H 0.7713073645 -0.1004845656 -2.4262999836
