9
0
O 2.1058323063 0.8015156706 -0.0927551531
C 0.9695964854 0.3642452417 -0.0428380974
C -0.3262965761 0.940990638 0.0833783144
N -1.1983072824 -0.0829747946 0.0772246683
N -0.676287705 -1.2617114431 -0.0355636318
N 0.619597705 -1.0000393979 -0.1068117444
H 1.2637899964 -1.7666910342 -0.2010539959
H -0.6296608213 1.9675894002 0.1708272282
H -2.2010491085 -0.0283222808 0.1492734115
