10
0
O 0.8582036011 -1.7567578501 -0.2078495794
C 1.0046635209 0.6660617133 0.3608372379
C 0.2704965436 -0.6148348303 0.2980183325
N -1.0115686226 -0.28720069 -0.3533095707
N -1.1604532474 0.9762968982 -0.415297398
C -0.000346346 1.557856692 -0.0080555496
H 1.7493087617 -1.5126756951 -0.4723847596
H -0.0151754205 -0.7443661708 1.3639083443
H -1.8036466552 -0.890975033 -0.5139745586
H 0.0447208647 2.6358839659 -0.0593454988
