13
0
C 0.9780498924 -1.1204793861 -0.0265000295
C 1.2914105894 1.6526651016 -1.9876079972
N 0.6953272157 0.88558522 -1.3471597639
C 0.001024435 -0.0808258645 -0.5814181335
C -0.7866412644 0.5682394525 0.5478853534
O -1.7682076413 -0.2167526383 1.062457217
N -0.5077003721 1.7023242356 0.9950697545
H 1.5067000928 -1.6097023218 -0.843313289
H 0.4470054624 -1.8780441282 0.5509320549
H 1.7019815183 -0.629100117 0.6226001814
H -0.7103101701 -0.5704807338 -1.2565452494
H -1.9110244401 -1.001400285 0.5270933896
H -1.1230593178 1.9552224649 1.7643645118
