14
0
C 1.2307865058 0.6942104785 -0.2116280745
C 2.0116175418 -0.1580675688 -0.854245714
O -0.8483456514 -1.6029362226 0.816581343
C -1.692419484 -0.4895898975 0.7760921463
O -1.0160374909 0.7255521685 0.6804411697
C -0.2291233155 0.8815418726 -0.4938029535
H -0.2483782598 -1.5017316562 1.5600373349
H 1.6388684895 1.3282346749 0.5712976917
H 1.6183731865 -0.812020644 -1.6255167006
H 3.0685537024 -0.2412770486 -0.6314980595
H -2.3011876345 -0.4049610426 1.6814428199
H -2.3393490737 -0.6517381002 -0.09350203
H -0.4076074221 1.9006905886 -0.8495463091
H -0.5563420942 0.1851203976 -1.2730676642
