11
0
N 1.8332749468 0.3767175383 -0.3670863476
C 0.721887113 -0.3994847805 -0.1174349258
C 0.5552103525 1.1132637058 -0.0736066734
C -0.5119720457 0.1738360208 -0.6240173742
C -1.107587988 -0.6402631124 0.5412624466
O 0.222867415 -1.12808147 0.9424181924
H 2.0745670666 0.3980750715 -1.3515087327
H 0.5042777988 1.4927834967 0.9365367367
H -0.9357847823 0.2307523358 -1.6211471819
H -1.7323728356 -1.4696127786 0.2168172741
H -1.5660840409 -0.0908530272 1.3638925862
