11
0
C -1.7584171745 -0.480014955 -0.3842155435
N -0.5141447745 -0.2372189465 -0.0531562798
C 0.1136328052 1.0419854774 -0.331612484
N 1.3001473295 1.0778787503 0.0570150756
C 1.54750295 -0.2324741033 0.646093692
N 0.3378235815 -1.0146580663 0.5370888915
H -2.3108948862 0.3022200411 -0.8756452341
H -2.1740913264 -1.4463086972 -0.1544290863
H 1.8506922074 -0.0978791626 1.690887574
H -0.4524299981 1.8217126592 -0.8242096607
H 2.3854582861 -0.7046669969 0.1203220552
