13
0
C 1.4968510718 -0.2447088195 -0.3892736142
C 0.1069872294 0.0430747265 0.0932594635
O -0.3381648893 1.4129569355 -0.2126505213
C -1.4111843203 0.8412154265 -0.8473063858
C -1.1047197915 -0.4425750552 -0.6750689366
O 0.5323113396 -0.917293461 2.2525693618
C -0.1211542058 -0.1762570106 1.5758034127
H 2.2153104466 0.393841131 0.1260275086
H 1.5636926237 -0.0753224261 -1.4632394048
H 1.7476214762 -1.2824741441 -0.1691772487
H -2.1854934617 1.4512937249 -1.2922242477
H -1.5272725635 -1.4028466391 -0.9103125428
H -0.9847819551 0.3914076114 1.9763911555
