16
0
C 2.0999753727 0.0035555546 0.5986299006
C 1.9125587495 -0.3033991523 -0.6746328586
O -0.456467419 2.356477537 -0.2202608288
C -1.0579102593 1.3736987779 0.0836254092
C -1.5658286777 0.515847772 1.1535525648
C -1.7950491928 0.1893775958 -0.3559474209
H 2.4951650536 -0.7172201835 1.3061448248
H 0.1708136869 -2.4272165022 0.7394878534
H 1.8706123525 0.9929853772 0.9783569457
H 1.5255135343 0.424917957 -1.3786267908
H 2.1476876663 -1.2882548213 -1.0632495452
H -0.3325457516 -2.9521823712 0.9046923482
H -0.8601383705 -0.1048832329 1.6934878919
H -2.4194389627 0.8518711599 1.7305461848
H -1.2355248294 -0.6397203219 -0.7736827806
H -2.7962029527 0.3148668538 -0.7515286986
