17
0
C -2.0163381396 0.2773679115 -0.4235505384
C -0.8663515228 -0.5552733708 0.1530586862
C 0.2905134565 -0.7612119131 -0.840470321
C 1.2907003271 0.3739013525 -0.697852419
C 1.6761580762 0.5341229193 0.7328808919
C 0.9200857487 0.0630989403 1.7587063911
C -0.4628557014 -0.0571893804 1.4930809011
H -2.4333609347 -0.1955106564 -1.3151993502
H -2.8032078961 0.4003668893 0.3196280479
H -1.6712314031 1.275131216 -0.7053159019
H -1.2871757328 -1.5386499145 0.4198074001
H -0.0787542287 -0.8337109307 -1.8653959039
H 0.8872776891 1.3165109246 -1.0886157472
H 2.1936708035 0.1782855983 -1.283610383
H 2.5730551627 1.1101839036 0.9496172057
H 1.2770803698 0.1490377885 2.7805095743
H 0.8017109259 -1.7001802778 -0.6123135335
