16
0
C 2.3593329121 0.1300435315 -0.5724956712
C 1.1774789484 0.2065062734 0.3572627543
C -0.1319801602 0.7348294519 -0.1341692041
C -3.5925678676 -0.2076218989 0.7393653934
O -3.0582510306 -0.4152960605 -0.4244369938
C 0.0302560338 -0.7390115289 0.1951118353
H 2.8840999355 1.0862027774 -0.6196278127
H 2.042882596 -0.1272651688 -1.586058379
H 3.0707046042 -0.6298008964 -0.2430957986
H 1.4196222156 0.4613859728 1.3830822307
H -0.1938219076 1.015193913 -1.1792109949
H -0.7190947891 1.3536961435 0.5332014568
H -2.7492485571 0.0294488158 1.4462819395
H -2.0843824663 -0.3266812188 -0.4412100665
H -0.4433997717 -1.1253980394 1.0892248783
H 0.0766443047 -1.440095068 -0.6299165672
