15
0
O 2.0733198856 1.5276453757 -0.2852919788
C 1.6272785595 0.4840047538 0.1020681688
C 0.3795008061 -0.1580850567 -0.4431864774
C -0.4270116465 0.6351230543 -1.4901109973
C -1.5749142989 0.8652752973 -0.4726753039
C -0.8220956569 -0.0055427548 0.5195038833
O -1.0541093291 -0.4406544952 1.6031551422
H 1.1487498485 -2.9594258968 1.6780534002
H 2.1071133681 -0.0719130931 0.9302375398
H 0.5907004804 -1.2085316728 -0.6597372697
H 0.6226901731 -2.4541076389 1.8373742894
H 0.077647659 1.5394165453 -1.8228743065
H -0.7161927682 0.0412139373 -2.354463099
H -2.5623207575 0.4862853429 -0.7374617389
H -1.6771803229 1.8939433018 -0.1221662523
