12
0
O -2.9574993886 0.7015016959 -0.5472434429
C -2.2367935813 -0.249878718 -0.477940691
C -0.7331395349 -0.1316644728 -0.1917938701
C -0.1754787812 1.2384093733 0.0048892364
N 4.0474971168 -1.1431543794 0.8654821661
C 2.9484485983 -1.2906332529 0.5823101056
O -0.1001188631 -1.1584012833 -0.1405722215
H -2.5825054885 -1.2923001493 -0.611093939
H -0.6629539007 1.7064227974 0.8628757903
H -0.4144220309 1.8605273086 -0.8595773967
H 0.8998702533 1.1975739276 0.1600858344
H 1.9103856009 -1.405065847 0.3169924285
