11
0
N 2.3476800749 -0.4732524293 -0.2154851786
C 3.0517373613 0.1089408963 -0.9328522931
C -0.4797457117 1.8084711399 -0.4095971335
C -1.6023972805 1.8595368054 -0.001036533
C -0.7440410501 -1.4302770162 0.3363586292
O 0.1655033095 -1.564238813 1.1123702833
H 1.6850814852 -0.958744028 0.3908079604
H 0.5248534407 1.7656831087 -0.7678262835
H -2.6008615436 1.9266341816 0.3639890577
H -0.5767159308 -1.1378319387 -0.713164004
H -1.787562155 -1.600311907 0.646476495
