14
0
C -1.1751018149 -1.0322335143 0.1075322488
C -0.8071815534 0.1432319211 -0.7897499907
C 0.3899491344 0.9790849132 -0.408777399
O 0.5208695399 1.4108508039 0.9585563879
C 1.5309192017 0.5964627406 0.4232600317
O 1.746498244 -0.6325378784 0.9938871058
H -2.1468884363 -1.4328872264 -0.1824016895
H -1.2539659455 -0.722901822 1.152597503
H -0.4574169478 -1.8506131954 0.0240526544
H -1.6598531157 0.8271638448 -0.8451804582
H -0.6389138294 -0.2087310479 -1.8121479273
H 0.5700180413 1.7863478157 -1.1193234726
H 0.9066257127 -0.9922231194 1.2901070577
H 2.4898617691 1.0842297646 0.2690719479
