14
0
C -1.6639884857 -0.9095926006 -0.1478794479
C -0.89719013 -0.1667358258 -0.9394412114
O -0.0069851448 1.2910119075 1.4595289525
C 0.9324605679 0.9546362235 0.4973861125
C 1.3783102221 -0.4572815302 0.3376295128
C 0.5270715065 0.172249985 -0.7396889364
H -0.8721386623 0.9763131186 1.1707958781
H -1.2755373633 -1.4181035666 0.7277002845
H -2.7127866262 -1.0589409303 -0.3708211967
H -1.3559659191 0.2942905394 -1.8100265922
H 1.6604404039 1.7447569179 0.3583219994
H 2.4137760161 -0.6632053514 0.1003186042
H 0.90772146 -1.1858540533 0.9855407478
H 1.0439851547 0.4584811664 -1.6473427073
