19
0
C 1.3483910257 1.8634439927 0.2916251147
C 0.309435704 0.8130136963 0.5810729843
C 0.6026666108 -2.2549063636 -0.7477463689
C -0.3756668376 0.0525942255 -0.5271288303
C -0.6294666013 -1.4284131801 -0.3982466995
C -1.1416912416 1.0486859543 0.2816262378
O -2.1255934532 0.5559164339 1.1414373727
H 1.4468977729 2.5695835664 1.119665429
H 2.3280046894 1.4122212893 0.1173942608
H 1.0873665317 2.4354299223 -0.6018519643
H 0.4789075235 0.2217250883 1.4769976572
H 1.4369612568 -2.0093073876 -0.0861572634
H 0.9280959855 -2.0653024252 -1.7736604554
H 0.4043403434 -3.324257164 -0.6535817265
H -0.1266153912 0.3786982031 -1.5338286415
H -1.4623913238 -1.7078259494 -1.0504129781
H -0.9559388175 -1.6497235339 0.6198263764
H -1.4027833219 1.9860464529 -0.2061339128
H -2.1109294553 1.076651179 1.9461924076
