18
0
C -2.2551344811 0.4498408619 -0.5560570708
C -1.2267151449 -0.4942744497 0.047971601
N 0.0993102079 0.1039422024 0.1355640657
C 0.3682457608 0.8914548876 1.3112546517
C 1.1638597696 -0.45645316 -0.5190006173
O 0.771067482 -1.0426857993 -1.6838323021
C 2.4489037106 -0.4174375973 -0.13039405
H -3.2444926716 -0.0124743355 -0.5592104513
H -1.9834293274 0.6959097906 -1.5832635944
H -2.3221311901 1.3818067221 0.0092431476
H -1.1611056326 -1.3987772833 -0.5526134877
H -1.5387137175 -0.8015835295 1.0537306524
H 0.6891077185 0.2794582024 2.1660199028
H 1.1456155468 1.6269948119 1.1015888573
H -0.5371494263 1.4271322471 1.596455493
H 3.2278554763 -0.7678240674 -0.7934862375
H 1.5170848422 -1.5333552591 -2.0335374325
H 2.7447430773 -0.016579245 0.8249638722
