12
0
C -1.6933172091 0.0753917546 -0.0305622175
C -1.0927824608 -0.5337538781 -1.0396039065
O 1.7180658404 1.3125217371 -0.2964002649
C 1.989065197 0.4612298111 0.5006728779
H -2.5607931606 -0.3517088066 0.4602348702
H -0.2550655811 -0.3430347827 2.5829405341
H -1.3424412999 1.0340324534 0.3354911006
H -0.2308751546 -0.0910867751 -1.526782646
H -1.4442168564 -1.4874530387 -1.4174894979
H 0.1027956016 -0.3287267305 3.237110093
H 1.4833405682 -0.5221293872 0.4978217725
H 2.7561065151 0.6200526427 1.2821072846
