13
0
C -1.8629296303 -0.4366702683 0.1091892714
N -1.6932046264 0.9875850772 0.2478546971
C -1.0452200262 0.3224321409 -0.8880691319
C 0.3878993065 -0.0194515497 -0.9409743887
C 2.303487936 -0.1070243299 0.3839731265
O 0.9200094073 0.2210854402 0.2232311196
H -1.3278527712 -1.0972900506 0.7836056717
H -2.8496219344 -0.7710004651 -0.1876459173
H -0.9911838866 1.183445826 0.9536007277
H -1.4970653375 0.5205905628 -1.8515863348
H 2.6937408758 -0.4709435235 -0.5648445979
H 2.3822972004 -0.8714379236 1.1564147966
H 2.8230204866 0.7949430636 0.7048629599
