13
0
C -1.7264730677 -0.3328597914 0.2115734071
C -0.6566820827 0.2456834116 -0.6817774058
O 0.3586713072 -0.6841902595 -0.9695814536
C 1.5022674061 -0.7083062865 -0.2659229463
O 2.3004838179 -1.5797859418 -0.4133767808
C 1.7107569081 0.4317690957 0.681007524
C 0.9580407446 1.4675816269 0.9161467556
H -1.3085621155 -0.6369010224 1.1719403043
H -2.50027168 0.4136239334 0.3944414294
H -2.1831091283 -1.2024901503 -0.2615508797
H -0.2276571745 1.177158732 -0.2132059769
H 2.6385812044 0.402354477 1.2495289639
H -1.0474571396 0.5861291754 -1.641746941
