11
0
C -1.749693724 0.0284029292 -0.4540439306
C -0.5072066366 0.7100402344 0.0626046116
O -0.4708465424 1.8451411911 0.4338778781
N 0.6229063388 -0.1370664985 0.0632059828
C 1.8452748681 0.2408582417 0.476086756
O 2.6321402915 -0.8224069506 0.3254303905
H -1.5977968426 -0.3130856057 -1.4803023668
H -2.5776523478 0.7306839117 -0.4238815374
H -1.9890823587 -0.8435666195 0.158543054
H 0.4864580187 -1.0869052102 -0.2722862701
H 3.5106049351 -0.5683746237 0.6161574319
