15
0
C 2.2965452538 -1.0566070062 0.7490973299
C 1.0860648548 -0.5188456823 0.6399284452
C 0.0244375602 -0.6946817062 -0.3282041018
C -0.9970561881 0.1040312887 0.0575992263
N -2.2060743044 0.3349238275 -0.5212195775
C -0.6605158901 0.856814312 1.3101730587
N 0.5570539036 0.4300719084 1.5645430234
H 2.9606583643 -0.7948606003 1.5629512936
H 2.647932278 -1.7748175623 0.0215657863
H -0.8920072755 1.6416300394 -2.5172074057
H 0.0881666491 -1.3499951815 -1.1834113022
H -2.8748655491 0.830404452 0.0411567229
H -2.5685291982 -0.3064820947 -1.2018672755
H -0.5860802966 1.9241700096 -3.1365866338
H 1.087315838 0.7411069957 2.3615744104
