13
0
C 0.1054805369 1.2192089044 -0.6151301854
C 0.2914841182 -0.1850401446 -0.0935284771
C -1.5982815981 -0.2854442632 1.3386732414
N -0.416432522 -0.8379322192 0.7286965481
C 1.4573880752 -0.8543413588 -0.6348433997
C 2.4337138032 -1.3555778209 -1.1151667049
H 0.0527014025 1.1931121103 -1.7049051035
H 0.975599422 1.822831832 -0.3503620599
H -0.7883107803 1.7037115372 -0.2328232197
H -1.5059063633 -0.3976203034 2.4207749878
H -1.8143884633 0.7633215402 1.1158520314
H -2.4556246857 -0.8898825436 1.0336297219
H 3.2972960545 -1.8201422703 -1.5292523803
