11
0
C 2.2199680847 -0.1007595779 -1.0639354474
C 1.0992485284 0.0795328831 -0.6925456727
C 0.5153985 1.1846000693 2.0438106711
C -0.3594200411 0.8701926559 1.1450770696
C -0.2713598577 0.2925801109 -0.2429486123
C -1.1314200789 -0.9772592142 -0.3136830325
O -0.7955120265 -1.9990959525 -0.8232758168
H 3.2199847366 -0.2655273928 -1.3899750913
H -1.3388549134 1.1128282036 1.5820138425
H -0.7619629562 1.0005046934 -0.9254925642
H -2.1336879758 -0.8551944789 0.1469626539
