17
0
C -1.3735607556 1.7524379567 0.0230817376
C -0.1192561028 0.951005806 -0.0972638356
C 0.9952096659 -1.1533295824 -0.0459309198
C 2.2878656838 -0.5531481234 -0.4269447183
N -0.0778227207 -0.3727159313 0.0841743745
C -1.3263807514 -1.0353395754 0.4622538206
H -1.8427160929 1.703022734 1.0131589012
H -2.1457276453 1.4856740343 -0.7100321697
H -1.130843516 2.8003399182 -0.1520873847
H 0.8045119122 1.4257298263 -0.3807544163
H 0.8673189132 -2.2030981239 0.1539366087
H 3.0591576475 -1.3180679232 -0.503759008
H 2.2279273346 -0.0302310252 -1.3945525165
H 2.6234523565 0.2010320251 0.3026037826
H -1.6914286097 -0.6263559242 1.4029780156
H -1.1441689134 -2.0992497246 0.5753901059
H -2.077347406 -0.8741023671 -0.3094253776
