9
0
O 2.4466094599 -0.5673004817 -0.656946722
C 0.5566367134 0.1685056828 0.2602146515
N 1.6143802872 -0.4079581422 0.4307241956
O -1.8700477842 -1.2172032133 -0.2655764979
C -1.8429838677 -0.0335734198 -0.0558773014
C -0.6215313455 0.7459717701 0.2272483409
H 3.1851795394 -1.061409343 -0.2903262051
H -2.7731327167 0.5664481073 -0.0599832052
H -0.698888286 1.8122340397 0.4017287436
