13
0
O 2.0312800341 1.8808485744 -0.9717609457
C 1.1478276256 0.8755228412 -0.7682423373
C -0.4029207572 -1.6103259583 0.2735320424
C -0.8816922712 -0.2207725091 0.1188335201
N -0.905551434 -0.8749923347 1.4294889723
C 0.0372433595 0.9302849611 -0.045504362
H 1.7400617296 2.6634504953 -0.496148076
H 1.4586988894 -0.0254911007 -1.2846947656
H -1.0081381836 -2.4079545639 -0.1430524627
H 0.6615636626 -1.8114598306 0.2955419641
H -1.8473061675 -0.1114703344 -0.3701847813
H -1.8452636703 -1.1734322121 1.6593781404
H -0.2409818171 1.855493972 0.4548810912
