16
0
C 2.4704203393 -0.3936922835 -0.2072063052
C 1.0512648477 -0.0317765782 0.0479451444
C -0.0072113831 -0.7382682674 0.4262192141
C -1.1824516564 0.1962880006 0.5220671534
C -2.4210965826 -0.2166965229 -0.272151716
C -0.6601719312 1.5614191134 0.1146203449
N 0.6143255723 1.3223500932 -0.1161171637
H 3.1422894953 0.1621970713 0.451757234
H 2.6286967024 -1.4571711691 -0.0371934288
H 2.7535230832 -0.1660176486 -1.2382785818
H -0.0180134634 -1.7987532111 0.6323778163
H -3.2023414678 0.5355678464 -0.1657818506
H -2.806769053 -1.1757652945 0.0785453184
H -2.1844759227 -0.3141190471 -1.3332147437
H -1.475530203 0.3176089822 1.5755111445
H 1.252546623 2.0484449153 -0.4038135799
