11
0
N -1.3648850967 1.5162561037 0.2564425548
C -0.4317287925 0.6830088787 0.0920276506
C -0.4182369806 -0.8305700995 0.0102546963
N 0.999731336 -1.0810582497 -0.187364668
C 1.776959056 0.0033000714 -0.2289955854
N 0.9040341884 1.0362577889 -0.0608491395
H -2.2641248424 1.0552758813 0.3467497966
H -0.7965390556 -1.2755940232 0.9333365955
H -1.0252288786 -1.1834015834 -0.8265342621
H 1.3829856385 -2.0018041862 -0.2844866505
H 1.1937844273 1.9976794179 -0.0476789881
