15
0
O -0.4310275777 -1.0829834916 -1.7941531821
C -0.2283699071 -0.577417687 -0.5247350432
C 1.0636294925 -0.7427962532 0.2683286762
C 0.9163703105 0.7298243896 0.7515308081
O 1.9645140457 1.5877561293 0.3837963855
C -1.3485097624 -0.1856620545 0.3747511423
C -0.3591098782 0.8584333613 -0.0772654949
H -0.8887529963 -1.9231798396 -1.723573203
H 1.0949642336 -1.5368248694 1.018171252
H 1.9309492093 -0.8301303205 -0.3872622163
H 0.7852900807 0.8627991199 1.8271481518
H -1.3757196424 -0.5055995701 1.4126762149
H -2.3148175346 -0.1185162401 -0.1102910153
H 2.0808676613 1.5365038335 -0.5682629915
H -0.668511735 1.7397294925 -0.6234934845
