12
0
N 2.1328162436 0.2533953509 0.0897518852
C 0.7711291995 0.1077215753 -0.1037235064
N -0.0235509205 -0.9952324724 -0.6677932774
C -1.2650439368 -1.0655906778 0.0582715318
C -1.5683639871 0.130769068 0.5387827833
C -0.4306427602 0.965350584 0.0774741529
N 0.0353917806 0.4186373777 -1.2510296766
H 2.6671651377 -0.0665488387 -0.7057219968
H 2.4611354891 -0.1707437167 0.9435600643
H -1.7733670295 -2.0149268002 0.1178631685
H -2.4189980588 0.452397873 1.1167960445
H -0.3467541575 2.037446677 0.1988958268
