16
0
C -2.6337377541 0.1588106649 0.5617635325
N -1.629439969 -0.2045528181 -0.4293931571
C -0.4606268661 0.6174840287 -0.4127731756
C 0.7063535534 -0.0017159862 -0.2002922009
O 0.7799944683 -1.3256822217 0.008365275
O 1.8784383673 0.6376674842 -0.2133061668
C 2.9723870572 0.0152932586 0.4465471355
H -2.2131172368 0.036096072 1.5609537892
H -3.497550222 -0.5022907268 0.4700517676
H -2.9788995841 1.197265563 0.4676109893
H -2.0485345961 -0.2267381365 -1.3497138856
H -0.1506554552 -1.6113151998 -0.0412211898
H -0.5079374694 1.6918925342 -0.5524068034
H 3.7964446911 0.7211024364 0.373409046
H 3.2465066401 -0.9233904418 -0.0355202307
H 2.7417443753 -0.1728085112 1.4975602747
