11
0
O -2.3293994962 1.1648988317 -0.3940228614
C -1.423364044 0.5920547201 0.3724071207
N -0.1758168717 0.8733770704 -0.0026783766
C 0.7969001111 0.1436859408 -0.344637214
O 2.0486424818 0.6134101656 -0.3977553356
C 0.7186614147 -1.3071403078 -0.6886803613
N -0.3035508668 -2.028009568 -0.5586232324
H -1.9269311898 1.6569928707 -1.1315742319
H 2.0468349398 1.5309284845 -0.1019357788
H 1.6544363644 -1.7446741057 -1.0359738338
H -1.1064128435 -1.4955241023 -0.203737895
