12
0
C 1.1270636138 0.0034577817 0.024314796
C 0.1066558374 -0.9831176853 0.5847033106
O -1.0466242328 -0.2570028526 1.0513943581
C -1.594507358 0.5178272043 0.1197619478
O -0.8966460312 1.0302088068 -0.8112513601
C 0.4448479077 0.9305862287 -0.9218964032
H 1.927106022 -0.5438155419 -0.4835230139
H 1.5904800603 0.5212976121 0.8718910208
H 0.4709600057 -1.5248857557 1.4537866345
H -0.2131180163 -1.6984172166 -0.1764065656
H -2.6399775094 0.766869183 0.1843485306
H 0.7603317006 1.1116922355 -1.9363892557
