13
0
O -2.2183461482 -1.0288133732 -0.1562688817
C -1.0806111849 -1.0399119474 0.2141704893
C 0.0942056875 -1.0525217694 -0.7467540707
O 1.3115181984 -0.7196921661 -0.1151983832
C 1.486802944 0.5694942236 0.2554888225
N 0.7276276599 1.5616826568 0.1222948167
H -0.1551288041 1.3659922079 -0.3419495572
H -1.2319278181 1.5472512839 3.0009046076
H -0.8090528683 -1.0705989784 1.2892938288
H 0.2157739561 -2.0741931338 -1.1118627061
H -0.1192056183 -0.4109712987 -1.606781495
H 2.4579701071 0.6715559118 0.7334072238
H -0.7191781111 1.7266763832 2.4894423052
