12
0
C 3.1575434877 0.4089503704 0.350125818
C 1.9610011089 0.331813488 0.3794995103
C 0.5371791454 0.2573921313 0.4376234777
C -0.1967943078 -0.4252529631 -0.4363036158
C -1.6914457994 -0.5177797208 -0.4018738145
O -2.3110306562 0.3040575973 0.5566381476
H 4.2194197443 0.473131868 0.320466164
H -2.1618086206 1.2209787227 0.3155519495
H 0.0536857085 0.7793798116 1.2571552915
H 0.2932535738 -0.9648284353 -1.2418061518
H -1.9808038092 -1.5440373257 -0.1566292456
H -2.0827705755 -0.3199455443 -1.4094605309
