17
0
C -2.0754066145 -0.2489657025 -1.2779783451
C -1.1351886582 0.6576734028 -0.5465990738
O 0.0667304974 0.0529827739 2.8632239847
C 0.1382415736 0.3747023159 -0.3426357493
C 1.105105412 -0.7421292595 -0.632177819
C 2.0969348087 0.1469403876 0.1288616009
O 1.0668198782 1.1494380001 0.3335151375
H -2.9204086288 -0.539284377 -0.6479761819
H -2.4908500663 0.2369731961 -2.1644285011
H -1.5758169825 -1.1627215766 -1.6045016186
H -1.509125486 1.6037851351 -0.1674677655
H 0.3980931402 0.7097121954 2.2398013151
H -0.7600196678 -0.2369883141 2.473415935
H 0.8688143249 -1.6896416006 -0.1506481229
H 1.3269810551 -0.9060043745 -1.6855068561
H 2.9239937314 0.5557618942 -0.4513251955
H 2.4516656824 -0.2459360962 1.0816562555
