11
0
N -1.7379215565 -0.0469196094 -0.8944305372
C -0.7413193273 -0.3567176918 -0.0348916701
C 0.0916820368 -1.170136745 0.5297464139
N 2.0982637107 0.4751332454 -0.4308133557
N 1.3169593758 1.1050162746 0.2779160969
C 0.2509693073 0.2778195416 0.8512132357
H -2.2080906747 0.8289649716 -0.7553466461
H -2.3118611886 -0.799358619 -1.231461686
H 0.5077371526 -2.1502663616 0.6596924378
H 2.7894474519 1.1485283406 -0.7838585453
H -0.0533132878 0.7096696528 1.804905256
