10
0
C -1.2722304116 0.3529861464 0.0692257753
C -0.2623793912 1.274450018 0.0056684844
N 1.0471310319 0.9373393106 -0.0660794957
C 1.2883404458 -0.3340611156 -0.0712022455
N 0.3136306157 -1.2689415492 -0.0091142261
C -1.0280989176 -1.046026125 0.0649027547
H -2.2982082896 0.6975203235 0.1247520344
H -0.463678504 2.3418845297 0.009864868
H 2.3128614101 -0.6904539339 -0.1265685161
H 0.6140750107 -2.2334726044 -0.0197784335
