13
0
N -1.7809493893 0.6931349916 -0.192969258
C -0.4384673094 0.314539903 -0.0623570944
C -0.0719947852 -1.1024911276 0.1313343934
O -1.0038720162 -2.0625177027 0.2273021164
N 1.1761818371 -1.3240797062 0.202579977
C 1.8122678427 -0.0311489012 0.0205606671
C 0.7163490462 0.9785300305 -0.1474146269
H -1.8996426547 1.6497015489 -0.4885700181
H -2.3177989968 0.5325974168 0.6486572458
H -1.8339513336 -1.706824588 -0.1086099223
H 2.4718929147 -0.0822484105 -0.8517038335
H 2.4476871668 0.2006315824 0.8815619254
H 0.8600606775 2.0400709629 -0.2925185718
