19
0
C 2.3589894849 0.4970096566 -0.603957998
C 1.1490367607 -0.4217318926 -0.7184782176
C 0.2136452664 -0.303415842 0.4699593593
C -0.5667375085 1.0146401187 0.653004541
C -1.9113529689 0.2743260452 0.7760605737
C -2.0521312348 -1.0760099666 -0.6340580453
C -1.110824301 -1.1041694431 0.4279184568
H 3.0046906474 0.4154023347 -1.4796952851
H 2.9586790879 0.2520229575 0.2761423603
H 2.0553816126 1.543237164 -0.514721593
H 0.5986711122 -0.1919193565 -1.6360361596
H 1.4785451375 -1.4617050974 -0.810560697
H 0.7578306968 -0.5515106446 1.3853913285
H -0.5359745625 1.669115256 -0.2192935904
H -0.295440456 1.5990052923 1.5310251746
H -2.3560901318 0.1731639499 1.7612374362
H -2.71415316 0.5884803767 0.0977570944
H -1.6797796501 -0.4047392433 -1.4292544095
H -1.2446658328 -1.8783356655 1.1813536709
