12
0
N -1.7372458702 -0.6225277926 0.0763138027
C -0.669201431 0.1192226101 0.5428914654
O 0.502889003 -0.5963257547 0.6859586748
C -0.6715957133 1.3727371559 0.9804623329
O 2.3298306824 0.593327583 -0.7818943504
C 1.8478019047 -0.4141470265 -1.1744516353
O 0.8762578595 -1.1516553815 -0.5835166008
H -2.4056426848 -0.1151717841 -0.476143555
H -1.497195089 -1.5186121575 -0.3107219489
H -1.5966319962 1.9227682885 1.0795300149
H 0.261292085 1.8364776925 1.2595570933
H 2.1040132498 -0.9477184332 -2.1032702936
