11
0
C 2.5514778589 0.6994244675 0.8277184278
C 1.6597379714 0.0575696567 0.3527940772
C 0.5974220626 -0.7375156121 -0.2138847034
N -0.4404043772 -1.3209702298 0.6762286221
C -0.7722998322 -0.2461934422 -0.1852572984
C -1.7130647404 0.5204517509 -0.612684619
N -2.553655284 1.3554619915 -0.9277505224
H 3.3419682262 1.2752151289 1.2483198286
H 0.8916507527 -1.4029470805 -1.0181633743
H -0.3052271814 -0.9891435766 1.6283271505
H -3.1654334568 1.0659919457 -1.6883235886
