14
0
C 1.5771298157 0.7504649958 -0.1865164424
N 1.0540782083 -0.3299763798 -0.5837852309
C 0.0916491998 -0.9849484924 0.0762601483
N 0.1593180353 -2.2569587011 0.3066820632
C -1.2228025516 -0.3453252455 0.5913832049
O -2.0351077383 -1.1926658086 1.0069015654
N -1.1662266857 0.9459074042 0.5369555048
H 1.4132228188 1.1507050215 0.8118404499
H -0.2447153069 3.0747655685 -1.8143706683
H 2.2256754479 1.2907790955 -0.8706727538
H -0.702649193 -2.6092763571 0.7338477082
H 0.9461463172 -2.8294722664 0.0543598808
H -0.4809826015 2.5855220735 -1.2980671429
H -2.000312766 1.3353260919 0.9685237128
