15
0
N 2.5082091263 -0.4543348798 -1.8874409517
C 1.4713088775 -0.7844260919 -1.1344339343
O 1.47377756 0.0172676466 -0.0686797358
C 0.3811310953 -0.150905012 0.81485026
N -0.6383838133 0.8201857565 0.5215487801
C -1.9612470915 0.4682528873 1.0036201968
C -1.6431255269 0.3976592981 -0.4394050496
H 3.1430166639 0.2979458776 -1.647766445
H 2.6707441505 -0.9659672669 -2.7335019372
H 0.0269799516 -1.1876041819 0.7260284251
H 0.7608984915 0.0348813381 1.8206728352
H -2.0734930424 -0.4744997497 1.5324115119
H -2.5468653379 1.2878006981 1.4014083755
H -1.5261594432 -0.5851504728 -0.8848757008
H -1.9907426614 1.1719681527 -1.1117666304
