12
0
C -1.5792928164 0.7069035719 0.0569547503
C -0.547607715 -0.2944245764 0.5468641634
N 0.5528096137 -0.4346388877 -0.4021178216
C 1.7594317196 -0.0401609915 -0.1421251904
C 2.6675167514 -0.2518182029 -1.2275868969
N 3.4864390053 -0.3713029362 -2.0310937464
H -1.1298427913 1.6941791495 -0.0573111258
H -2.0035489913 0.4067943068 -0.9037534964
H -2.3977367247 0.7821060503 0.7734962958
H -0.9983795382 -1.2797349689 0.6910688755
H 0.2935225669 -0.8414306331 -1.2989406976
H -0.09644708 0.021200118 1.48586089
