10
0
O 1.3542836563 1.1523131214 1.4275093634
C -0.5098414367 -1.1624156786 -0.2786679996
O -1.0036303984 -0.0728437754 -0.8831291935
C -0.3433604497 1.0589023762 -0.3100529923
C 0.6207264791 0.494919437 0.7327369915
C 0.4224707053 -0.949073312 0.659563589
H -0.9308304524 -2.0954491316 -0.6297363401
H 0.1895372542 1.596089525 -1.0951461304
H -1.0861354839 1.7143144846 0.1452732748
H 0.9324561261 -1.6922610465 1.2488874373
