14
0
O 2.179091319 -0.1805809798 0.0218008732
C 2.1269925094 0.601509746 -1.003330539
C -0.2876934946 -0.021549692 0.055146897
C -1.3160686512 -0.5253179718 -0.8531220563
N -1.6187804935 -0.3673618137 0.5843430135
C -1.1249684833 1.02205794 0.648463152
C 0.9361007398 -0.6705953198 0.5834989428
H 3.2051685692 0.7955115727 -1.2043645288
H -1.7799568496 0.1651748456 -1.5539404638
H -1.2666631212 -1.5596011886 -1.1757945075
H -1.5833081127 1.760058711 -0.0060925876
H -0.9051567448 1.3584067183 1.6559664179
H 1.022089512 -0.5105695185 1.6588707844
H 0.9200613015 -1.7441110495 0.3900926021
