15
0
C -0.5917665924 1.2561943987 -0.171666346
C -0.4023913678 -0.2254418181 0.0195645005
C -1.5347803542 -0.9517896225 0.6960795207
C 0.5119473739 -0.9578060726 -0.8539785301
C 3.2348980607 1.2427286318 -0.2042852131
O 3.7786919195 1.2175368166 0.7782112877
O 0.8969098186 -0.6076176018 0.4684257399
H 0.2796746108 1.6981050935 -0.6543048944
H -1.4711340165 1.4553168482 -0.7877785611
H -0.7364135944 1.745866437 0.7940666277
H -1.2917276456 -2.0055325204 0.831574935
H -1.7296743793 -0.5159974347 1.6785525716
H -2.4500576555 -0.8767059722 0.1050559439
H 0.3600913107 -2.0205487034 -1.0242536516
H 1.0412615118 -0.4294554801 -1.6430039308
