19
0
C 2.2983996313 0.0094354423 -0.197548234
C 1.1085714934 -0.01878351 -1.1477800268
C -0.2186101442 -0.014583785 -0.4307014661
C -0.7630664761 1.2908961995 0.0615800141
C -1.406013321 0.582864015 -1.1132137936
C -1.267628566 -1.2546478123 1.3477908626
O -0.3380148646 -1.2040326523 0.3010774753
H 2.2807381719 0.9074997469 0.4246866414
H 2.28374857 -0.8580169532 0.4627845253
H 3.2406321321 0.0015055416 -0.7481949225
H 1.1416997157 0.842138066 -1.8205705542
H 1.1492493568 -0.9135372196 -1.7759690587
H -1.0002320248 -0.5761268946 2.1653851399
H -1.3283989218 1.320187609 0.9827863084
H -0.1760700531 2.1817617864 -0.1239416353
H -1.2771848049 0.9899902031 -2.1078778942
H -2.3744454526 0.1313078867 -0.9385857816
H -1.2529511227 -2.2764791107 1.7245907136
H -2.2888613192 -1.0262865591 1.0179106864
