12
0
C -1.3954121065 0.2110967386 0.7017758054
C -0.6116461203 0.5019919529 -0.5376529269
C 0.5103787425 1.2049353567 -0.5839200558
C 1.88404033 -1.7978196301 0.0157853038
O 0.9170548672 -2.4285962014 0.0871651743
O 2.8615529076 -1.1843180898 -0.0511843154
H -0.9224280658 0.6450924405 1.583941228
H -1.490615572 -0.8665330283 0.8554514107
H -2.4086839762 0.613453383 0.6238191638
H -1.0111928419 0.092778976 -1.4628697118
H 1.0325597581 1.3793242317 -1.5167835001
H 0.9486090773 1.6339328703 0.3115784243
