17
0
C 0.5147023633 1.1074378315 -0.8139753197
C 1.5332074875 -2.1219596568 0.7667192025
C 0.3945776525 -1.6539264107 0.2813260742
C -0.3305299312 -0.4537261964 0.8086623044
N -0.6645887261 0.4952839997 -0.2388405616
C -1.595606757 1.4963626001 0.2334668634
H 0.2257176557 1.7566469124 -1.6420541725
H 1.0754866553 1.7150284956 -0.0809134584
H 1.1878928916 0.341226727 -1.1988783086
H 1.9982224858 -3.0128057283 0.3624440778
H 2.0396726334 -1.6325890662 1.5925798374
H -0.0876544117 -2.1544793113 -0.554776257
H 0.2617847203 0.0150937596 1.6165945677
H -1.2709925383 -0.7887864728 1.2584941107
H -1.8733710521 2.1596053372 -0.5875369815
H -1.1787806372 2.1187052897 1.0456645946
H -2.5037194917 1.0183108896 0.6050984267
