16
0
C -2.57524467 0.1277594539 0.8361836158
O -1.3395686607 -0.4237232572 0.4616502539
C -0.6719993945 0.3333304456 -0.5189197037
C 0.6661512427 -0.3153024955 -0.7880126787
N 1.4552926014 -0.370868226 0.4356434232
C 2.7621663501 -0.2440362008 0.5853157238
O 3.3225698386 -0.0373192284 -0.6234079632
H -2.4529396617 1.1292421326 1.2681017676
H -3.2565843873 0.1981639761 -0.0212617433
H -3.0145494765 -0.5303820321 1.584154583
H -0.528625765 1.365681225 -0.1680309802
H -1.2613491384 0.3685305974 -1.4458800855
H 1.2127910314 0.2571801776 -1.5351840631
H 0.5119860265 -1.3241743299 -1.1811197165
H 0.9360228011 -0.5663589666 1.2750621903
H 4.2623812621 0.0609787281 -0.4700206234
