18
0
C -1.8357883311 -0.7603437078 -0.681392467
C -1.3064375313 0.421136926 0.1179100923
C 0.2078899383 0.6017188912 0.0131300911
C 0.6698402222 1.8507122205 0.7522450918
N 0.8777359231 -0.5571696667 0.5786927281
C 1.6267944943 -1.2375433692 -0.1599170667
O 2.2867764895 -2.321237011 0.2756366481
H -1.5818016208 -0.6653177289 -1.7409275704
H -1.4151988631 -1.7000048916 -0.3194083909
H -2.9222595914 -0.8312190676 -0.6069285392
H -1.7831260653 1.3445076869 -0.2248703093
H -1.56348052 0.3037266954 1.1751641026
H 0.4635304179 0.7103459654 -1.0542966976
H 0.1796916476 2.7408472543 0.3527760682
H 0.4320251633 1.7688117997 1.8148208667
H 1.7491139614 1.9808011977 0.6569955094
H 2.0606092232 -2.4289249871 1.2080778294
H 1.8325020425 -1.044623207 -1.2158489865
