13
0
C 2.5543761908 -0.9856192522 0.6324479931
C 1.3082520827 -0.7187937157 0.9446893356
C 0.1871951523 -0.1081232719 0.3993091477
C -0.3666004715 1.1723429546 0.2949283469
C -1.7781034516 1.0589438923 -0.126386068
O -1.9443227676 -0.3780809346 -0.3794334409
C -0.8506299061 -0.9513523345 -0.0524626318
H 3.2199451392 -1.5137372975 1.3108089299
H 0.1160286609 2.107683777 0.5213929021
H -2.5526777076 1.2933112801 0.6152375948
H -2.0400985603 1.5582084286 -1.064045752
H -0.8196005826 -2.0326260613 -0.1426634005
H 2.9954992215 -0.6906524647 -0.3250189569
