14
0
N 0.9231107093 0.6652064344 2.3941273708
C 0.3800182291 1.6468977865 1.9465597705
O -0.1293495676 2.53122988 1.3959258463
C 0.9205427177 -0.9895908238 -0.8933599085
C -0.4881843335 -0.8622100187 -0.3955293075
C -1.3397399745 0.270738571 -0.746178491
O -1.5214429043 -0.9949389696 -1.3604355
H 1.6205965875 -0.6180273611 -0.1424099935
H 1.1383994556 0.5070626316 3.3612762065
H 1.1604260704 -2.0353662655 -1.095248405
H 1.0541523821 -0.422794775 -1.8156313462
H -0.7018143424 -1.3725472458 0.5419382809
H -0.9465826199 1.0500483059 -1.3936826246
H -2.1359624096 0.5820298501 -0.0759558988
