12
0
N 1.9159180225 -1.4420058472 0.9429479352
C 0.8594919625 -1.3929764879 0.4998606413
C 1.2140990188 1.2187538336 -0.9386608075
C -0.5101216396 -1.3570299854 -0.0318791261
N -1.3058061905 -0.1980771831 0.3168178809
C -0.888855587 0.9829630373 0.3702662188
N 0.3911080199 1.5226569006 0.0425936525
H 0.7631113892 0.3718165194 -1.4861034284
H -0.4708477577 -1.4789548991 -1.1173719182
H -1.0276241735 -2.2333804078 0.3614480131
H -1.587726922 1.7493458493 0.7058237358
H 0.6384058575 2.3252066705 0.6098082026
