17
0
C -2.4023271785 -0.3878717894 -0.3565359649
C -1.1418638335 0.4132919377 -0.6566038608
C -0.0054888032 0.1672559286 0.2942524226
O 0.4556050161 -1.4831384584 -0.1615086117
C 1.2317491557 0.8956838966 -0.1811545769
C 2.5168781176 0.4553091808 0.4473578165
O 2.7667609237 -0.7002267619 0.7194756513
H -3.2348801425 -0.0782748508 -0.9918034924
H -2.2454230553 -1.4546690159 -0.5387071351
H -2.6938918664 -0.2614192789 0.6875080169
H -0.8593373469 0.2846797635 -1.7159479484
H -1.3627734586 1.4811467659 -0.5276260408
H -0.0901911409 -1.9638205043 0.4681716522
H 1.3712266069 -1.476475092 0.2260314656
H 1.0758411185 1.9547764144 0.0421110236
H 1.4208742097 0.8444698056 -1.275898304
H 3.2912656775 1.2211090585 0.6308628862
