15
0
C -2.449259485 0.2688020648 -0.5018478879
O -1.2106468567 0.4823194724 0.1476572459
C -0.5463890831 -0.682959967 0.4244630517
O 0.1745431206 -1.2876204519 -0.6213685612
C 0.9048565785 -0.6728381564 0.4463186748
C 1.6818668378 0.5691311126 0.1333158418
O 2.994606464 0.1778855657 -0.2212879915
H -3.0986894062 -0.3797076278 0.0976546848
H -2.9229649558 1.2420186227 -0.6130924421
H -2.3025333894 -0.1815140866 -1.4875337147
H 1.4274112519 -1.3770061298 1.090176001
H -1.1175023963 -1.3816518083 1.0384198106
H 1.1829224573 1.1101552454 -0.6748479686
H 1.6883562639 1.2076688278 1.0272768811
H 3.4887515984 0.9563103164 -0.4799916259
