14
0
O 1.649038482 0.7212607522 -0.5157125851
C 1.055641887 0.1139955517 0.587288496
C -0.2547216388 0.6519758872 1.1372942202
C -0.8765766316 -0.5242090332 1.0428673455
O -0.8176068235 0.9835403667 -2.0312391903
C 0.2865633222 -1.2408602336 0.3942874943
H 0.9654206836 0.8736432099 -1.1838975121
H 1.8288956802 0.0312151764 1.3543133462
H -1.3001556385 0.756557287 -1.2291342847
H -0.5422183321 1.6238178851 1.5211959295
H -1.8494163227 -0.8729635316 1.3702937617
H -1.102346102 0.3590283502 -2.7002697055
H 0.148499865 -1.4923790668 -0.6592042259
H 0.6863195693 -2.1131306009 0.9165589102
