19
0
C -2.3184843995 -0.5220754406 0.467504284
C -1.1143875898 -0.1455578212 -0.3810345576
C 0.1879864283 -0.1242952549 0.4404210191
C 1.47853884 -0.0497001182 -0.3708557593
C 2.718419999 -0.1144719644 0.5114885477
C -1.3140184536 1.1816760896 -1.0727901333
O -2.2495002527 1.9136016848 -0.8947898664
H -2.1857327134 -1.5161123353 0.8979036763
H -2.4547354797 0.1902187642 1.2829986352
H -3.2358449 -0.5186442894 -0.1211341224
H 0.2083723535 -1.0351633458 1.0472771787
H -0.9808242633 -0.8819692939 -1.1859795361
H 0.1463251808 0.7092593973 1.1509756959
H 1.5070535701 0.871301471 -0.9598457372
H 1.4971495463 -0.8740864853 -1.0914881092
H 3.6331444952 -0.077106798 -0.0822321537
H 2.7373874506 -1.0386946866 1.0941823993
H 2.7442563022 0.7208861688 1.2150963882
H -0.5152281142 1.4718182578 -1.7866598494
