16
0
C -2.8398241028 -0.3432142751 1.3256286742
C -2.4014801993 0.0160451597 0.1308483934
C 0.6811060293 0.6777550175 -2.21476273
C 0.9676358064 0.3137040247 -0.9986078836
C 1.2518176675 -0.0493359187 0.2174768978
C 2.6434307861 -0.2475449942 0.7467449322
H -3.0396698939 -1.3804952814 1.5699640001
H -3.0198825433 0.385468866 2.107986889
H 0.4209124006 -0.219035027 0.8986087857
H -2.1971267654 1.0519065351 -0.1149093999
H -2.2168883743 -0.7104515754 -0.6521015582
H 0.5257404052 -0.0555898906 -2.9980127652
H 0.5868938028 1.7250925628 -2.4788364827
H 3.389335777 -0.0584535742 -0.0243295449
H 2.8357959024 0.4259323983 1.5851474504
H 2.7748993021 -1.2685060274 1.1125783416
