17
0
C 1.9824461278 0.3842334326 -0.5910473301
C 0.8684984218 -0.6080039853 -0.3476701254
C 0.3899582738 -0.6725902772 1.0821071168
O -0.894337134 -0.6564181248 1.0106331258
C -1.3902209564 -0.6255440513 -0.3912698328
C -2.5196935366 0.3534558279 -0.516320969
O -0.284482276 -0.2634217554 -1.1236488482
H 2.2498510073 0.4013471715 -1.6474475845
H 2.8581978335 0.1038146567 -0.0064955293
H 1.670892707 1.3854657741 -0.2916366639
H 1.2018727662 -1.6307101123 -0.5937074749
H 2.2210102387 1.5304240737 3.1470504524
H 1.8873000821 0.9264389427 2.8589615558
H -1.7034217433 -1.659170046 -0.5924979575
H -2.1754400783 1.3523459297 -0.2488080793
H -2.8805428882 0.3650004732 -1.5448146552
H -3.3402258456 0.0645240707 0.1401297992
