14
0
O -0.8776349391 -0.4420639977 1.4622276832
C -0.2728518012 0.1052207935 0.3351850341
C -1.0541438029 1.3385690636 -0.0413873552
O 1.0871777168 0.4899305632 0.6712488064
C 1.8945149111 -0.3693781076 0.0193482845
N 1.3968171757 -1.1998638983 -0.7894694051
C -0.0364272414 -0.9216410088 -0.7948648313
H -0.4446708242 -1.2698538876 1.6872087141
H -2.0675455723 1.0555399148 -0.3270151729
H -0.5756989996 1.8487213649 -0.8762941608
H -1.1060891389 2.0138092165 0.8118785062
H 2.9488918384 -0.2741577417 0.2511006463
H -0.3281398436 -0.5241348876 -1.7694899168
H -0.6158154788 -1.831333387 -0.6253078325
