15
0
C -1.4377406511 -1.3938954336 0.046237708
N -0.3496682605 -0.6158379575 0.069611212
C 0.9563027546 -1.1688684027 0.264949844
C 1.8763760066 -0.2176872153 0.2441706159
C 1.2110242093 1.102177676 0.0206010161
C -0.2243220899 0.7054564579 -0.0688062577
N -1.3144426397 1.5498854117 -0.282556015
H -2.4024631903 -0.9400537517 -0.0991187707
H -1.3085446311 -2.452564774 0.1834089913
H 1.4126502955 1.8024482057 0.8408723985
H 1.0439132474 -2.2356967576 0.3995308578
H 2.937290505 -0.3719028413 0.3688896913
H 1.578076699 1.5863929266 -0.8934287923
H -1.8187259486 1.3366342824 -1.1379434918
H -1.9821823061 1.5356241735 0.4821849925
