13
0
C -1.9551031751 0.9373517478 0.2997904494
C -0.9974597866 -0.2418775459 0.3884831225
O -1.3507940287 -1.1817200728 -0.5950024899
C 0.4135675576 0.2305256684 0.4667949693
O 1.1376825088 -0.5495278942 -0.3394758866
C 2.4396517657 -0.3460043161 -0.3836537145
C 3.6204105262 -0.2331496593 -0.4861317659
H -2.9790615974 0.5785667123 0.3957562204
H -1.8505640048 1.4296197603 -0.6675860874
H -1.7458285851 1.6580646395 1.0886319431
H -1.094794733 -0.6782955787 1.4065898897
H -0.6122654553 -1.7749450605 -0.7518140695
H 4.6740820077 -0.1122334008 -0.5633875806
