12
0
O -0.2025905189 0.9567066156 -1.5937920881
C -0.0892159116 1.2565217904 -0.218246794
C 0.2295321375 0.0320783256 0.6178749091
C -0.555239375 -1.2610075793 0.3878755267
O 0.7156388445 -1.8812189516 0.0398546181
C 1.4426948313 -0.7874538868 0.1636274109
H 0.6715990016 0.7578202437 -1.9378399027
H -1.0498192415 1.6802833362 0.0817839547
H 0.3344602789 0.3096145251 1.6706321983
H -1.0117669242 -1.7532848449 1.2462141095
H -1.2224949903 -1.2689739425 -0.4727243673
H 0.6796638678 2.0165093684 -0.0385965752
