16
0
C 1.5910887237 -0.927137833 0.6411014023
C 0.5400423646 0.0905886649 0.2540973787
C 0.828780488 1.0742268011 -0.8188315891
C 0.7617021702 1.5171752134 0.6053757946
C -2.0504189888 0.3581752661 -0.0581957338
N -1.6646373442 -0.9638599532 -0.5413086385
C -0.8791783862 -0.3366655948 0.514739637
H 1.4750874977 -1.2118902666 1.6885475904
H 2.5980478613 -0.5284637637 0.5117135303
H 1.4978338331 -1.8230616557 0.0235377718
H 1.8288317446 1.0778336559 -1.2435175421
H 0.0800761223 1.4702362429 -1.4985010507
H -1.891333808 1.2158451199 -0.7015610759
H -2.9731695841 0.3879435495 0.5076179445
H -1.1735667927 -0.8865584184 -1.4257967013
H -1.0030359016 -0.8004220282 1.488364282
