16
0
C 2.4920491209 0.1712929047 0.4977202605
C 1.2076228108 0.2317891084 0.8099420619
C 0.237933225 1.2240524087 0.2413842957
C -0.9424697676 0.5540875431 -0.4740611599
C -1.8320424438 -0.1894038522 0.4828374524
O -2.1742585879 -1.3334552427 0.3634154951
H -0.9107772392 -3.0627182278 -2.2805706853
H 2.9359145465 0.8637100219 -0.2104930386
H 3.1477719052 -0.570338458 0.9367343043
H 0.8043075608 -0.4871951572 1.5207941928
H -0.1487899015 1.8595357303 1.046896182
H 0.7557008002 1.8855303532 -0.4557981577
H -1.5611257814 1.3281934945 -0.9424901782
H -0.6046128119 -0.1310997765 -1.2524396855
H -2.1778942903 0.4065331622 1.356954929
H -1.2192301458 -2.7606270124 -1.6716722687
