14
0
C 2.0626300475 -0.0585821879 0.3163809712
N 1.0806709533 0.2198222461 -0.7048500357
C -0.2491877605 0.1746412638 -0.4639101198
N -1.1235999445 0.688505007 -1.2556148879
N -2.3585993099 0.3540296218 -0.6360307222
C -2.3751428795 -0.311279002 0.4788791502
C -0.8943871286 -0.5050420528 0.7147844612
H 1.8489255568 -1.0148224112 0.7955706197
H 3.0436956995 -0.1368472946 -0.14932483
H 2.1078960471 0.7148761426 1.0913931091
H 1.3559610376 0.8102996173 -1.4708980837
H -3.1747871278 0.6786748988 -1.1283002708
H -0.652990421 -1.5698321544 0.7734476041
H -0.59977377 -0.0671326945 1.6725680345
