11
0
N 1.9194604278 0.0395565108 -0.0686499333
C 0.5568418679 0.1704157712 0.2535907664
C 0.0837533994 0.8883527088 1.2962033527
O -1.467338539 0.7676764464 1.0045055011
C -1.7057820281 0.099669035 -0.0107522496
C -0.4861865273 -0.3670040738 -0.6751464869
H 2.4810801432 0.5529863042 0.5968169908
H 2.2308251836 -0.9220220899 -0.0895072548
H -0.4216511555 0.0695422707 -1.679311156
H -2.7399829746 -0.0855876078 -0.296532715
H -0.5119407974 -1.4546952757 -0.8120588156
