16
0
C -0.7777315912 -0.9551597519 -0.9667067199
C 0.317182785 -0.5801305828 0.0263700448
C 1.6720689835 -0.4427362725 -0.6589704601
C -0.0535809206 0.7060613037 0.7679091585
C -1.2679095111 0.5720393847 1.6271479347
O -2.0172160756 1.6331898795 1.5912849525
H -0.5392798532 -1.8865013235 -1.4839603183
H -1.7373073771 -1.0864837765 -0.4613519234
H -0.9000040757 -0.1755088318 -1.7255983993
H 2.4615094402 -0.2120822611 0.0598282576
H 1.6545407275 0.3567145428 -1.4056443729
H 1.9462029912 -1.3668488877 -1.1717631531
H 0.7407255384 0.9494968167 1.4887416633
H -0.1190755464 1.5569761049 0.0592992168
H 0.3820649981 -1.3714918623 0.7791336919
H -1.684111513 2.3234545178 0.9797944272
