9
0
N 2.5874350969 -0.8093540886 -0.3003996455
C 1.5846071658 -0.2554741827 -0.3352821029
C 0.3062385219 0.4587234899 -0.3525792236
C -1.8020322196 -0.4965849073 0.5826173115
N -0.5988432565 -0.0154883946 0.7006692811
H 0.5038526472 1.5259926164 -0.2285660698
H -2.0369313162 -0.5097815238 -0.4999945705
H -0.1837928635 0.3098077177 -1.3145937804
H -0.2117517761 0.0608382729 1.6337288002
