13
0
C -0.6547351767 0.2353313507 -2.1293030494
C 0.0364977272 -0.8876599943 2.1884122446
O 0.079476712 -0.9667747344 0.9156869613
C 0.4318641445 -0.0462732994 0.0251011838
N 0.3534054626 -0.4188582053 -1.3049400532
C 0.7792424258 1.217292594 0.5228961685
N 1.0607292348 2.2437716556 0.9770495389
H -0.6306598175 -0.198177692 -3.1297107609
H -1.6426311324 0.0501178393 -1.7062385243
H -0.5113027194 1.3193865753 -2.2140060187
H -0.2812042614 -1.7875261378 2.6891876583
H 0.3104298707 0.0326511681 2.6895866248
H 1.2501805298 -0.4772671199 -1.7633649738
