14
0
C 1.3645115629 -0.2427263987 -0.7899457707
C 0.4540800286 0.2492300891 0.2958912009
C -0.8062101142 -0.5394622331 0.5177805149
C -1.8219473532 -0.4751165459 -0.5972243086
O -1.7127736445 0.1599705612 -1.6080083159
C 0.7299015457 1.3136892709 1.0372226392
H 0.8595845526 -0.2039335359 -1.7570528194
H 1.6510233045 -1.2834751073 -0.6113414956
H 2.2723145887 0.3569655598 -0.8472138714
H -0.584280221 -1.6039360559 0.6722394028
H -1.3225616177 -0.2148797169 1.4275015579
H -2.7342960284 -1.0818749254 -0.4126186156
H 0.0573837234 1.6525074645 1.8171184531
H 1.6368596726 1.8872415736 0.8868564286
