16
0
C -0.5021038716 -0.9738745566 1.1174083588
C 0.3528667433 0.6681851225 -0.7133828283
C -0.9926029 1.2360371401 -1.0759527948
C -0.1469585697 1.9257814283 -0.0555779522
C 0.4743728511 -0.5972344901 0.0456122898
N 1.4629653804 -1.3310365477 -0.2770113804
O 1.509162212 -2.4984188546 0.4810529199
H -1.283438894 -0.2265008117 1.2432988616
H 0.0186975013 -1.1007974455 2.0678103094
H -0.9647557519 -1.9331732364 0.8810088802
H 1.1392585268 0.7885259619 -1.4469448256
H -1.0914385573 1.6852895829 -2.0548345967
H -1.8760003062 0.7120647004 -0.7343872809
H -0.4538467448 1.8707319397 0.9809787316
H 0.338903893 2.8528860835 -0.3277986631
H 2.2852304876 -2.9428800167 0.1359079706
