18
0
C -2.3705888227 -0.4659213109 -1.4020704233
C -1.3499820672 -1.0260934805 -0.771245369
C 0.0729719913 -0.5636514384 -0.8452408824
C 0.6885687202 -0.1902678458 0.5180587
C 2.1862992174 0.0464578098 0.4067159696
C -0.0447951499 0.9816045659 1.1113689422
N 0.5413538087 2.0470426115 1.4549940711
H -0.1230781522 2.7214824314 1.8274358549
H -2.235417538 0.4054834442 -2.0346658199
H -3.3760001521 -0.8595569742 -1.3148375514
H -1.1283613187 0.8458973147 1.2140618352
H -1.5337800573 -1.8979636966 -0.1452848804
H 0.6816418115 -1.3667124234 -1.2737740218
H 0.1547889868 0.2903921062 -1.5244888298
H 0.5085641199 -1.0356312146 1.1972294958
H 2.6862086153 -0.8542105796 0.0451232815
H 2.3981828676 0.8616079363 -0.2873818788
H 2.6136331194 0.3248067441 1.3692985066
