11
0
C 1.469310263 -0.4103057205 -0.0046330915
C 0.2024259414 0.3225283225 -0.3423399354
O 0.1511238868 1.1950898513 -1.1756303886
C -1.0595111064 -0.080095114 0.3908403509
O -2.1732013072 0.6048672251 -0.0822066
H 2.3329036602 0.1941005389 -0.2737519948
H 1.5076726632 -0.6808911503 1.0514754955
H 1.498024083 -1.3363305372 -0.584616246
H -0.8978701373 0.1138530305 1.4611815661
H -1.8398534775 1.2248588829 -0.7462163988
H -1.1906614691 -1.165603329 0.2840832428
