10
0
O 1.6903500781 0.3135427748 -0.7786680074
C 0.7462471724 -2.3897775239 0.5767366486
N 1.2814353632 1.0486761453 0.1090979435
N 0.1083324878 1.2844995433 0.5088513304
C -0.9323423331 0.5615092428 -0.0770550919
C -1.0324904891 -0.7607275781 -0.2116797836
N -0.0686119645 -1.6426848659 0.200549661
H 1.9801097721 1.6027932251 0.6184226483
H -1.7898320671 1.1712701664 -0.33265212
H -1.9316400198 -1.2067321299 -0.6141932289
