10
0
O 1.8786666647 -1.9358244554 -0.7808826066
C 1.2959763274 -0.9177611893 -0.5066166679
O 0.6527997727 1.9190811579 0.2638656149
C -0.4673329403 1.4995885254 0.3921100231
C -0.8709738879 0.0702956617 0.3374463752
C -0.1160681582 -0.9628232744 -0.0418094379
H -1.3058587751 2.1995688923 0.5744403219
H -1.9005007335 -0.1187613569 0.6271228388
H 1.7733216141 0.0683938591 -0.5901693959
H -0.539991884 -1.9627048203 -0.0392930654
