10
0
N 1.9925741689 -0.1609016843 -0.0812466713
C 3.1422238096 -0.3488036758 -0.1297977059
C 0.6349639501 0.0304597111 -0.0233296044
C -0.008349875 1.2223681123 0.0077664709
O -1.3357129269 1.0146186037 0.0630723983
C -1.5404397161 -0.3225704558 0.0673047658
C -0.3686643522 -0.9879068913 0.0158593241
H 0.3368884342 2.2415466245 -0.0033376621
H -2.567104998 -0.6447187381 0.1090957437
H -0.2150614945 -2.0537706062 0.0056639409
