11
0
N 3.1695268056 0.8493018593 -0.1720334287
C 2.1898693224 0.3554667688 -0.5151877744
C 0.9864633803 -0.2679480572 -0.9486317439
C -0.185356069 0.1750119529 -0.5239971427
C -1.0841202342 1.0073371469 0.2072688579
O -1.4732179469 -0.1087801253 -0.6713683957
H -0.8756022465 -1.9039044896 2.0908850742
H 1.0460573347 -1.1088491062 -1.6259992839
H -1.2491751275 -1.9089275134 1.4457392719
H -1.252430661 0.8210105106 1.2617486375
H -1.3478685579 1.9863610533 -0.1752730722
