16
0
N 1.4110538988 -0.7990803251 1.944842307
C 0.8089062803 -0.2197809464 0.8803842218
O 1.3343425822 0.7137916008 0.2931272003
C -0.505587927 -0.7979695783 0.4969636552
C -1.5591306293 0.1206804713 -0.0711730625
C -0.8715612028 -0.8405437868 -0.9666487096
O 0.4052229215 2.1944524474 -1.9107481485
H 2.3030315129 -0.4455830578 2.2410853213
H 0.9990469424 -1.5693205628 2.4346795722
H 0.7877261394 1.7240096397 -1.1520589316
H -0.8541099034 -1.6196712294 1.1107305219
H -2.5815844811 -0.076654273 0.2212309583
H -1.2945753727 1.1644919177 -0.1751445555
H -1.4065566345 -1.7168102999 -1.3067942785
H -0.1489703857 -0.4343525018 -1.6617082279
H 1.0252952591 2.8938214845 -2.1156938439
