15
0
C 2.1279848951 0.4245746018 0.080917758
C 1.0479917135 1.1256595159 -0.7151010599
N -0.9145006723 -0.6506790246 -0.0989817972
C -1.9909523318 -1.5515651856 0.2393732165
C -0.9787585966 0.5233951259 0.3405430569
O -0.0743580572 1.4762341123 0.1027876726
H 2.994471259 0.2410923217 -0.5573899403
H 1.768728913 -0.5331124901 0.456134657
H 2.4463975071 1.0403866445 0.9234838703
H 0.7031557238 0.5012392163 -1.540916178
H 1.4055287348 2.0771726714 -1.1089306092
H -1.5910385267 -2.4140987766 0.7766507656
H -2.4528532289 -1.9292127857 -0.6751167437
H -2.7733501328 -1.0899529405 0.8571638996
H -1.7853981999 0.9154349933 0.9682414317
