11
0
O -1.082808135 2.1588449276 2.1002994443
C -0.5615274706 2.2484915793 1.1089762146
C -1.1492432982 -0.5318803935 -0.8762603181
C -0.2701691865 -1.052562588 -0.0246044193
C 1.1146495111 -0.6353324857 0.1881011965
C 1.6988015366 0.3291262737 -0.493102433
O 2.2097702724 1.1691009977 -1.0945959151
H -2.151091041 -0.9333583533 -0.9448392143
H -0.9064927116 0.2984274835 -1.5308908665
H -0.578105789 -1.8813296258 0.6038913929
H 1.7370853119 -1.1235058154 0.9255839179
