13
0
C 2.0033555547 -0.2211484467 0.4451793987
C 0.7428571126 0.5442153571 0.1517061125
O 0.7239276441 1.7399602226 0.0048578845
C -0.5318439643 -0.2714623217 0.0472568696
C -2.7819444267 0.1225742657 -0.9341867141
N -1.6388346626 0.527731417 -0.4613217322
H 2.3398565866 -0.7080088325 -0.4740296869
H 1.829822979 -1.00393621 1.1855220842
H 2.7795063479 0.4598738329 0.7864958944
H -0.3687030042 -1.138897273 -0.5961191387
H -0.7627837879 -0.650308398 1.0490485232
H -2.7680656905 -0.9873299111 -0.8861760786
H -1.4429006887 1.5226562979 -0.4310804168
