10
0
C -0.9711615065 1.0438004231 -0.031475304
O -0.4209444464 0.4089172916 -0.9887590098
C 0.7526939282 -0.2006695886 -1.0022632825
C 1.5933964996 -0.0747870947 0.1066528594
N 2.228463599 0.0762655334 1.0610060081
H -1.9457522388 1.4481744233 -0.2526556923
H -0.4519674555 1.1679973828 0.911013489
H -1.2413399023 -1.4794711708 0.8922532465
H 1.0130212371 -0.6625321694 -1.9356705202
H -0.6440077146 -1.799097031 0.5717602058
