14
0
C -2.0319993882 0.8901390527 0.116819172
C -0.6470790541 0.6401320415 0.6012245227
C 1.0851736427 -1.3296694766 0.3646552223
C 1.6805635397 -0.0148096063 -0.1425514149
C 0.2493902526 0.34510333 -0.5254243904
O -0.2297875145 -1.012702973 -0.1873357768
H -2.0993448115 1.9879141439 0.1282170894
H -2.7881495166 0.5316481147 0.814977059
H -2.2697127512 0.5527938794 -0.9012489815
H 1.0197952715 -1.4357524074 1.4458155435
H 1.4596841693 -2.2433685123 -0.0966770568
H 2.1238306811 0.6354573363 0.6074523386
H 2.3507084394 -0.1397919705 -0.9914122808
H 0.0216720398 0.6491390474 -1.5517330461
