15
0
C -0.2595419603 -1.324247622 1.4509786031
C -0.5698208368 -0.0581119478 0.6563792597
C 0.6829661679 0.8876650822 0.5228320086
C 0.8432578611 1.0754061715 -0.9402037802
C 0.8331347181 1.1147827106 -2.2441301329
C -0.178921652 0.3116696559 -1.6405052835
C -0.9837698972 -0.3293811155 -0.7969341894
H 0.5477167975 -1.8876183268 0.9756612808
H 0.036274284 -1.0938121582 2.4781014128
H -1.1357046263 -1.9740473718 1.4968507467
H -1.3654636575 0.4807313647 1.1861422576
H 0.5552309631 1.8471283078 1.0259825285
H 1.5862318579 0.4356546559 0.9403873227
H 1.2618294622 1.4867687493 -3.1621000081
H -1.8255064816 -0.9603691557 -1.0492040265
