13
0
C -0.9514463174 0.3839250912 -0.2219769553
C -0.7971960685 -0.4016919814 -1.5239127341
O 0.5487265151 -0.769896211 -1.1791531
C 0.431713501 -0.1972585293 0.1225779454
O 0.4344450243 -1.2429573934 1.0433876602
N 1.4453018949 0.734193249 0.4900312109
H -0.9617578466 1.4666269322 -0.3386017951
H 0.5958760196 -0.855714804 1.9078928666
H -1.7462561673 0.072273246 0.4507189178
H -1.4400857972 -1.2799455502 -1.6146864022
H -0.8306374679 0.1763331385 -2.4493803267
H 2.3495906983 0.2775078347 0.4649937703
H 1.4670690117 1.5205559777 -0.1439700578
