17
0
O 2.704349855 0.0240725964 1.1883368104
C 1.5063623917 -0.6520734267 0.837989734
C 0.3599258211 0.2825901333 1.0772234114
C 0.0312251683 1.3297191428 0.0438005501
C -0.8883521478 0.1679580601 0.271588535
O -0.9558757399 -0.8448423156 -0.6766344166
C -1.778007255 -0.5090026029 -1.7679894374
H 3.4405028907 -0.5748222084 1.0576413362
H 1.5178176163 -0.9614817525 -0.212119397
H 1.3791237279 -1.5535128669 1.4507394584
H 0.230297739 0.5662379035 2.1154583153
H -0.2707720418 2.3163396359 0.368411277
H 0.62643577 1.3059826389 -0.8609757703
H -2.8091387379 -0.3147144267 -1.4470713351
H -1.8332807298 0.3591218938 0.7778729554
H -1.7733853214 -1.3583558325 -2.4497169136
H -1.4024780061 0.3786204276 -2.2903301131
