19
0
C 2.2479411333 -0.9082386337 -1.2148966815
C 0.6965532757 0.1773075427 0.5054705074
O 0.7746825894 0.559776181 1.6472207823
C 1.8485612335 0.3590879241 -0.462084744
C -2.3242888728 1.1511551077 0.7214364667
C -1.7948511106 -0.2737218652 0.824702005
C -0.5514342657 -0.5081489829 -0.021321452
H 2.5262566214 -1.7050682424 -0.522349499
H 3.1062812569 -0.7122523428 -1.8582255925
H 1.4405793341 -1.2784829495 -1.8486095565
H -1.5829059012 1.8718472887 1.0705209683
H 2.6880091094 0.7594291827 0.1069296632
H 1.5431745666 1.1296273011 -1.1793097782
H -3.2226814238 1.2807865502 1.3269123233
H -2.5817107506 1.4014331068 -0.3114942432
H -2.5697730358 -0.9781636805 0.5110017824
H -1.5590575526 -0.5035053503 1.865702946
H -0.715789388 -0.2026180735 -1.0606430077
H -0.3148988191 -1.5779030643 -0.0662928899
