16
0
C -1.8502285012 -0.4292490305 0.3274783731
C -0.3903073377 -0.5931026122 0.0494126185
O -0.0804122454 -1.2563614087 -1.1007153535
C 0.5891657852 -0.1362226511 0.8322686257
C 2.0530336816 -0.3112352485 0.5696611635
C -0.1262273556 3.1713055538 -1.9954711837
N 0.0686739141 2.2982785132 -1.2539947587
H -2.0127856176 0.1088444655 1.258865102
H -2.3366463459 -1.4055613018 0.4017992804
H -2.3366939404 0.1284821944 -0.4792913351
H 0.210690729 1.5261207433 -0.613503951
H -0.8738372417 -1.408702786 -1.6167736472
H 0.2890752715 0.3545237729 1.7510761424
H 2.5817027624 0.643860505 0.6225732507
H 2.2300284898 -0.7462761108 -0.4129295045
H 2.5064969517 -0.9681555985 1.3162081775
