12
0
N -1.7587634398 -0.1352433556 -0.3549079755
C -1.0783494706 -1.1684706805 -0.7244598685
C 0.414503849 2.0666534724 0.7728212673
N 1.0166806877 1.1612167134 0.1782489126
C 1.4062449517 0.108881583 -0.3964721833
N 1.1969155189 -1.1558436558 0.1792156613
C 0.0143859498 -1.6398144845 0.0989824948
H -2.4868146777 0.219116315 -0.9575669716
H -1.5525404578 0.448480579 0.455381312
H 1.0308700014 2.535340638 1.5540703377
H 1.9907431031 0.1762186878 -1.307671235
H -0.1582120158 -2.6094418124 0.5716242483
