18
0
C -0.4255645227 0.6233422277 -0.8501734772
C -1.2128940027 -0.3994509127 -0.005142366
C -0.2915646085 -1.6159245318 0.0976983145
C 1.0974841727 -0.9898993913 0.2022353537
C 1.0497079758 0.1545995671 -0.8178631871
O 0.6779744851 2.0841789718 2.1927451283
H -0.7971170425 0.6443133529 -1.8756351202
H -0.5446664101 1.6376076005 -0.4643335119
H -0.096996337 1.5353442256 2.059106694
H -2.1881337276 -0.6352559802 -0.4326717095
H -1.4030963374 -0.0051798098 0.9986631899
H -0.5370168747 -2.2696518385 0.9360225266
H -0.358619072 -2.2145235558 -0.8163980211
H 1.2466406802 -0.5960909444 1.212761622
H 1.9063457238 -1.6956458782 0.008218846
H 1.3444894247 -0.2175545028 -1.8014161722
H 1.747955742 0.9603934387 -0.5793598231
H 1.1810157309 1.9979359609 1.3807417135
