13
0
C -2.3300854112 -0.3507003628 -1.6061257856
O -1.9277300935 -0.5445456166 -0.2564450751
C 1.2213832038 0.7432446745 1.2824664468
N 0.3711102486 0.9350011201 0.465394993
N 2.0959287485 0.6898647441 2.1494078487
C 3.3187400665 0.0425629276 1.9510051145
O 4.1497143135 -0.057503622 2.8014291096
H -2.9817823846 -1.1603576198 -1.943422203
H -1.4241366547 -0.3566401096 -2.2094021676
H -2.8368299698 0.6084750869 -1.7416302055
H -0.4647165719 0.3796242331 0.2579223576
H -2.7002431164 -0.5444808549 0.3105193231
H 3.4639056215 -0.3713326006 0.9355522435
