13
0
C 2.115351944 -0.1023672645 -0.5686834596
C 0.8061874573 0.0807464077 -0.1747694962
C -0.0991205841 -1.0263834168 -0.2955668094
N -1.2999103876 -0.7504692495 0.1032175421
C -1.3879091648 0.6342162045 0.568592843
C 0.0051241313 1.1075632237 0.3584108259
H -1.7403674531 0.6166959428 1.6108030431
H 2.4353647885 -1.0597914763 -0.9560070512
H 2.8495777014 0.6866052903 -0.4984534726
H 0.1477495889 -2.0127849333 -0.6731146451
H -2.0681958451 -1.3993415603 0.0948712327
H -2.1649341697 1.1403494375 -0.0234604575
H 0.3192429932 2.1086823943 0.6017309049
