17
0
C 2.1847120892 0.2575176521 0.0133340013
O 1.0761437867 0.3653391569 0.8728268413
C -0.1764748233 -0.0242381917 0.3305824974
C -0.5522062618 0.8195218588 -0.8930593344
C -1.1712735952 0.1790521575 1.4726396561
C -0.1264916433 -1.4925268865 -0.0299090406
O -1.3104430361 -1.8474540997 -0.458728839
H 2.2139779079 -0.7173637342 -0.4837970219
H 3.0742359923 0.3609927871 0.6337196488
H 2.195017597 1.0507621944 -0.7440336
H 0.0834982327 0.5973500245 -1.7521778526
H -0.4399899966 1.8762703602 -0.645460195
H -1.5851734845 0.6283787425 -1.1818107407
H -1.1246272643 1.2184327572 1.7983009246
H -2.1860014721 -0.0559617287 1.1539065282
H -0.9074479008 -0.4549801178 2.3203859581
H -1.2853751279 -2.7848549329 -0.6756804315
