16
0
C 1.3357444437 -2.0209986898 -0.2281992948
C 0.5159574832 -0.9828838843 -0.1773836534
C 0.7664533139 0.4242059684 -0.6959222474
C -0.3949439256 1.3070331507 -0.4316294085
C -1.3219638652 0.4867241462 0.346554899
N -1.8723848074 -0.5530921534 -0.5442272498
C -0.8485543818 -0.9519697597 0.3921552943
H 1.0522913649 -2.9864091521 0.1736299873
H 0.3887806656 3.6858817334 1.8202807321
H 2.319059296 -1.9415623427 -0.6768569416
H 1.4973314773 0.9226759275 -0.0321960829
H 1.2010546241 0.5141375191 -1.6932032765
H 0.1240603773 3.4134179853 1.1758727468
H -2.0389084692 0.9049390648 1.0404399708
H -1.5208346511 -0.4752283028 -1.4953504503
H -1.1647479455 -1.6331092106 1.1722149748
