11
0
N -1.7926654616 -0.232551347 -0.299841327
C -0.4606699755 -0.0937162481 -0.0724687197
C -0.0449979038 1.3215846379 0.2970483853
O 1.0141416409 1.5684676548 0.7863653817
C 1.7154515249 -0.992413809 0.0906110058
O 2.5162259739 -0.8187497396 -0.7852470928
N 0.3431623765 -1.0664091521 -0.1124489656
H -2.128844119 -1.1142178873 -0.6440497944
H -2.3739303543 0.5739022073 -0.4290765584
H -0.7957102581 2.1136034333 0.0999699291
H 2.0125075562 -1.2317607502 1.1266887561
