14
0
C 1.909002842 -0.5628128292 0.2389192596
N 1.4589829126 0.6087896518 -0.4900371273
C 0.1879418318 1.0067399396 -0.4082387094
N -0.6956510356 1.7092116357 -0.956763355
N -1.5423098978 -1.2572457739 -0.3965126706
C -1.9140152188 -0.2303813402 0.2428968206
C -1.0379199916 0.9628845344 0.341359535
H 1.4446915397 -0.5619941675 1.2236194119
H 1.6353634208 -1.4914574279 -0.2676866501
H 2.989917547 -0.5163229612 0.3682265855
H 1.9195500865 0.817099015 -1.361278409
H -2.2662584632 -1.9711084061 -0.4020891044
H -2.8855565729 -0.1599983046 0.7457580006
H -1.1819440006 1.5910174344 1.2181344126
