21
0
C -3.7376907713 -0.0717625819 0.6120807125
C -2.3759019394 -0.6688187201 0.7724589988
C -1.2596934445 -0.0479593975 0.4230925248
O -0.029440464 -0.5792879592 0.636888089
C 0.9985160299 -0.0662337357 -0.1891150831
C 2.3228623177 -0.6329059558 0.2726283911
C 3.485232457 -0.1310101445 -0.5732721218
H -3.6873632622 0.9139931583 0.1456860079
H -4.3768132348 -0.7042467703 -0.0095446209
H -4.2403214162 0.0396956134 1.5766054744
H -2.2957561809 -1.6587826761 1.2112432965
H -0.8705420073 2.3553511834 -2.7977479727
H -1.2686279125 0.9449143783 -0.027546712
H -0.5977428027 1.7158734157 -2.5304195326
H 1.0089200925 1.0312693054 -0.1308310693
H 0.8067037948 -0.3416139754 -1.2353391434
H 2.2668529759 -1.7237148139 0.232722577
H 2.4699625084 -0.3643703629 1.3218420654
H 3.5720253753 0.9572918022 -0.5255454233
H 3.3630254792 -0.408238204 -1.6230881666
H 4.4299694055 -0.5519665594 -0.227581292
