16
0
C 1.3252564573 -0.4771229566 1.0827244192
C 0.2769207929 -0.0291489863 0.0914760342
C 0.7001524583 0.8482780013 -1.053796744
C -0.1213680856 1.4125739872 0.0714142857
C -2.0931312241 -1.1279576809 0.6515009062
N -2.0746651982 -0.7535516407 -0.5743258019
C -0.7596387682 -1.0833827418 -0.1580035333
H 0.8693685543 -0.7010625801 2.0495192257
H 2.0811632772 0.2957542637 1.2322088106
H 1.8344613952 -1.3786446623 0.7320507144
H 1.7431724695 1.1315824214 -1.122038047
H 0.2134781739 0.7075470995 -2.0114451792
H 0.3634759414 2.0759483892 0.7758594819
H -1.155864651 1.6610812276 -0.1290666536
H -2.6672042946 -0.4332520826 -1.3238856939
H -0.3679232983 -2.0344530584 -0.514180225
