12
0
N -2.5319822799 0.460995783 -0.7238723405
C -1.5044487366 -0.1669706397 -0.1668682991
C 1.050839825 -1.1091112418 0.6231775947
C 1.6988793869 -0.1141440245 0.1034660885
O 2.6678506563 0.395243263 -0.6459807185
C 0.5457647841 0.2584960558 0.893080918
O -0.6395192976 0.7511056179 0.2408245054
H -2.5856990848 1.4703188024 -0.795540362
H -3.290772363 -0.0834998395 -1.0860829046
H 0.8681204956 -2.155884061 0.7746432453
H 3.1666863741 -0.3221474627 -1.0481807467
H 0.6037242397 0.7409677474 1.8660740195
