18
0
C 0.0274265139 -1.8928670097 1.5246678603
C -1.5532955949 0.3051011486 -1.5660848411
C -0.8527094364 1.295442035 -1.0323084763
C -0.8527624862 1.6754205506 0.4128112619
O 2.5564879259 0.5750338555 0.0614801634
C 2.3231799749 -0.4036952716 -0.5888146927
H 0.7343863129 -2.6921404082 1.3044941656
H 0.550268185 -1.0639669916 1.9995658505
H -0.7432272647 -2.2688086739 2.1957904015
H -2.2067990379 -0.3160342491 -0.9613400072
H -1.5076620151 0.0845716729 -2.6259331948
H -0.2147465597 1.8935756596 -1.6794849196
H -1.1860878386 2.7086242286 0.540037494
H 0.1590607997 1.6133773583 0.8206057453
H -1.5073807506 1.0282732746 0.9983895322
H 3.0819792678 -1.1959223733 -0.736349627
H -0.4338459867 -1.5446237822 0.6009213419
H 1.3413119906 -0.5604290241 -1.0712390578
