11
0
C -1.5086942182 0.0530167773 -0.2084462907
N 0.2896030694 -0.6729979696 1.3183857172
C -0.1365778883 0.3604781302 0.3702395302
N 0.9011510431 0.4443285667 -0.6244396171
C 1.7495007873 -0.4171892333 -0.2549715546
N 1.3863692922 -1.1223063269 0.953219594
H -1.4854107011 -0.8919886163 -0.7520911903
H -2.2419581424 -0.0206077597 0.5931809631
H -1.8010506742 0.8449609643 -0.89572209
H -0.166378409 1.30162036 0.9323891383
H 2.6794908412 -0.6499738928 -0.7570052002
