13
0
C 0.6429659658 0.3081250371 1.4621135376
C 0.0003009627 -0.172070395 -1.5637273587
C -0.5520531535 -0.837753181 -0.3256793109
N -0.6226479313 0.0954812294 0.7832276693
C -0.0623522975 1.1270870786 -1.7270859867
O -0.0880858555 2.2736835077 -1.8800557141
H 1.3632689424 0.7497524113 0.7714909425
H 0.5008143903 1.0095872479 2.2844280179
H 1.0851901621 -0.6172599557 1.8617579617
H 0.445809286 -0.7395366005 -2.3693561323
H 0.0740408061 -1.7157510633 -0.0993038963
H -1.5620307648 -1.210919779 -0.5180177081
H -1.3252585127 -0.2053075376 1.4416069781
