13
0
O 1.4058433288 2.2649473985 -0.6757492602
C 1.1849565551 1.1477110031 -0.2975061777
C 0.3742471474 -1.1090406887 -0.7981713821
O 0.1937363927 -1.6217120836 0.4100028288
C -0.5080463954 -0.870386763 1.2114222121
C -1.0689343755 0.2587604956 0.4150008196
C -0.0326497815 0.33221851 -0.7229665563
H 1.8992633352 0.6164760031 0.3675865331
H 1.1615680104 -1.5655446659 -1.3768186104
H -0.8690597721 -1.3404817784 2.1116012349
H -2.0477215919 -0.0415313114 -0.0010901807
H -1.1966814276 1.1956310005 0.9537874212
H -0.4350244257 0.7626878802 -1.6373428821
