16
0
C -2.2969764315 -0.7185951468 -0.3802097451
C -1.3732586528 0.2476222703 0.3377337471
C 0.0866428115 0.0887959277 -0.0173777331
O 0.4411624878 -0.6669629464 -0.8955056992
C 1.0726306275 0.8981050949 0.7823758546
O 3.2491335678 -0.4783859417 -1.3730257451
H -3.3350009095 -0.5395987841 -0.0975595974
H -2.209944165 -0.6094293487 -1.4610800497
H -2.0475387439 -1.7518915824 -0.1373204628
H -1.6376803529 1.2880094331 0.1149020294
H -1.4622842245 0.1598081797 1.4259826368
H 1.2168817026 0.4033551437 1.7470065114
H 2.303673707 -0.6823977081 -1.3068420027
H 0.6878682742 1.8983766515 0.9864884255
H 2.0323884925 0.9503854401 0.2713239806
H 3.4505808093 -0.4923646832 -2.3086371504
