15
0
C 0.6998867971 1.0664285229 -0.192600938
C 1.3139173982 -0.305798203 -0.0151208133
C 0.5409517359 -1.5032538985 0.370144916
O -0.8271762853 -1.4353278988 0.0962376835
C -1.4113791579 -0.1653840503 0.3578295487
C -0.7873210314 0.9187055342 -0.5068060631
C 1.1847778486 -1.4089004672 -0.9976144552
H 0.8252382267 1.6317697687 0.7354741181
H 1.2171522999 1.6094941561 -0.9858210112
H 2.3320151446 -0.3396933492 0.3806795166
H 0.8350898234 -2.1854511479 1.1595944462
H -1.3046855501 0.0765380625 1.4234950176
H -2.4711378031 -0.2861437182 0.1348232186
H -1.3113479124 1.8637486975 -0.3504572522
H -0.9218265343 0.634925991 -1.5543799322
