21
0
C 2.4569057571 -1.2844855206 1.3993689542
C 1.0727532359 -1.2734577712 0.7647994817
C 0.6907066035 -0.0389659961 0.0760934844
C -0.4345196776 2.5421740134 -1.0398296723
C -1.0586626476 1.1740239422 -1.2635986557
C -0.7500344282 0.1553550343 -0.1533382538
C -1.6909009309 -1.053612577 -0.2222395087
H 2.7440298285 -2.2893920344 1.7161872778
H 3.1994980314 -0.909462936 0.6950550258
H 2.476880623 -0.6379836819 2.2784038652
H 1.0690982274 -1.9377758071 -0.1266045041
H 0.3169485279 -1.7085084197 1.4344968054
H -0.6430547537 3.2100622334 -1.8774630447
H 0.6453824493 2.4545865931 -0.9207906687
H -0.8341367321 3.009562802 -0.1352934008
H -2.1446397682 1.2730642535 -1.3587347851
H -0.7059069312 0.755966118 -2.2120084889
H -0.9165531084 0.6790483825 0.8189809363
H -1.5898649204 -1.7232587047 0.6311139477
H -1.4936946412 -1.6330476887 -1.1278974085
H -2.7308617444 -0.7266512349 -0.2645023874
