10
0
O 1.6695841187 0.0124826609 1.2434809146
C 2.3766675115 -0.3093352169 0.2617188169
C 1.9585836816 0.7008730464 -0.549120709
C -2.4138333541 0.0153198557 -0.1561311418
N -1.1575354695 0.0296891987 -0.2486300539
H 3.1356505844 -1.0947497165 0.237260873
H 1.0114197532 0.5897081653 -1.0821149839
H -3.0132838411 0.0018657477 -1.0669954802
H -2.9611977921 0.0159516434 0.7912932234
H -0.7093371925 0.0440746152 0.6675315409
