12
0
N -1.8272450886 0.3251016918 -0.5920015828
C -0.6311568056 0.2400056199 0.2221558805
C 0.408586035 1.2868662456 -0.1301612701
N 1.520900678 0.5839772425 -0.1546044814
C 1.3743424679 -0.8244145332 0.0319887341
C 0.0893242679 -1.0842933076 0.2170166227
H -2.0192912444 1.2975665851 -0.7930287248
H -2.6292516339 -0.0656215488 -0.1180205651
H -0.8070584323 0.4892111124 1.2909788648
H 2.4187453634 1.0071161767 -0.3272246045
H 2.2353585716 -1.4762119752 0.003859696
H -0.3552571791 -2.0539553091 0.3804504307
