19
0
C -0.3043519949 -1.3037161136 0.2969891257
C -0.7500029253 0.0337607563 -0.2500153697
C -1.4894260961 0.9592595045 0.7027057046
C -0.3512944731 1.5235162055 1.5611332084
O 0.6871718116 0.5526198194 1.5359484868
C 0.6266040439 -0.1329504439 0.306768577
C 1.8964882736 -0.0910521166 -0.4864223294
H 0.2638071986 -1.8938151482 -3.3920911596
H -0.710620816 -1.6224733882 1.2490889626
H -0.1162693281 -2.0977768975 -0.4153825154
H -0.9085975506 0.1301205625 -1.3163649213
H -2.2185499016 0.4170031748 1.3087245187
H -2.0191923783 1.7493901836 0.1696288568
H -0.6257251908 1.6941326498 2.602696035
H 0.0167603286 2.4682161748 1.1399553541
H -0.4527105318 -2.0091468473 -3.2241047994
H 2.7096546109 -0.5619286161 0.0691419203
H 1.7769339811 -0.6221082791 -1.4319054033
H 2.1807549383 0.9409908196 -0.701787252
