14
0
C -2.0424908079 0.0403860495 -0.0961352318
C -0.8282797551 -0.3808870656 0.6740801049
O -0.1262824955 0.6557761913 1.3889777754
C 0.5013541302 0.0375854875 0.3043994026
C 1.2642764535 0.602532049 -0.815613271
C 1.8764516038 -0.4419876821 0.1276322252
H -2.3224013343 -0.7356382402 -0.8119932922
H -2.8869675271 0.2031957143 0.575895006
H -1.8459527133 0.964246967 -0.6402286323
H -0.921084068 -1.3010632582 1.2481818304
H 1.6243332184 1.6187396648 -0.7161413653
H 1.0162739978 0.3000614016 -1.8256759519
H 2.0388011656 -1.4432286412 -0.2513642931
H 2.6235981321 -0.0892486377 0.8273556932
