13
0
C 2.0596201484 -0.4591061459 0.6062437796
C 0.764891525 -0.2367609758 0.4333233132
N 0.0807748244 0.9375754823 0.8075089256
C -1.1345298238 0.7696575418 0.4857366298
C -1.3862734631 -0.5634334777 -0.1469811178
O -0.0945897129 -1.1363266587 -0.1415973268
H 2.6619985116 0.3051535878 1.0708708985
H 0.02226925 0.9469847672 -2.7768284792
H 2.5088577851 -1.3886669535 0.2904322091
H -1.8930469075 1.5247788526 0.6610908551
H 0.3281754475 1.2383268522 -2.1626590899
H -1.7654462138 -0.4798404343 -1.1711641261
H -2.0817243709 -1.1808624378 0.4321495286
