14
0
O -1.7947314769 -1.1225780753 -1.4444165312
C -1.6869993497 -1.0002763106 -0.0452151208
C -0.448234432 -0.3007162198 0.4321452323
C 0.5623242968 0.0669850388 -0.3395653166
C 1.8026219947 0.7649004013 0.1356855017
O 1.7767914566 1.1625516812 1.486784878
H -1.8425790824 -0.2414206204 -1.8215765882
H -2.5695809811 -0.497458975 0.374116552
H -1.6998899021 -2.0209571349 0.3475794069
H -0.4005659826 -0.1148499984 1.502424334
H 0.5315635356 -0.1554740694 -1.4034607769
H 1.0700826915 1.8017540945 1.5997540484
H 2.0077866311 1.6209133144 -0.522241459
H 2.6577666005 0.0901958735 0.0374678396
