14
0
C 1.4930282713 -0.3665058146 -0.5023041107
C -0.0468348448 -0.8537865426 -0.4103775823
C -1.1774374505 0.1500595163 -0.3731732108
C -0.8494010655 -0.6357383665 0.8180127402
N 0.6760098191 1.1819402331 1.025752267
C 1.1164434743 1.0164484347 -0.1760113803
C -0.7397013821 0.8792009855 0.8812192636
H 1.8904881206 -0.5471467709 -1.5021264273
H 2.0627939521 -0.877215503 0.2707030428
H -0.2475838225 -1.7630457963 -0.9675610567
H -2.0610743451 0.2169249713 -0.9879308058
H -1.3806245299 -1.3145238714 1.4631080273
H 0.6244395127 1.5163329907 -1.0291133704
H -1.4816667095 1.4051335337 1.4724376035
