14
0
C -1.8176651757 0.6925718842 -0.5560069186
C -0.5805801305 -0.1368434814 -0.6435039561
C 0.6314892 0.2165496965 -0.2101659604
N 1.7655562623 -0.6038281362 -0.2015123557
C 0.8434338554 1.5118761072 0.3847984314
N 1.0376475251 2.5466465782 0.8435974901
H -2.2495725573 0.8480998024 -1.5476710658
H -1.6248176954 1.6691713901 -0.1119569429
H -2.5770956011 0.189806514 0.048269738
H 0.2104211824 -2.4356836583 2.2312887677
H -0.6771581135 -1.1246463167 -1.0867641674
H 0.6670536491 -2.0048091084 1.8275921292
H 1.6962308328 -1.4006212274 -0.814013678
H 2.6376967665 -0.114162044 -0.3202735115
