10
0
N 1.5704307252 0.2035457758 0.3780438981
C 0.125011413 0.1450765701 0.2001694883
C -0.6384928548 1.267756491 0.1806384303
O -1.8935063638 0.659166541 -0.0082958278
C -1.7269016245 -0.6682408218 -0.0731313806
N -0.5050810701 -1.0648093364 0.0476442589
H 2.0779399974 -0.1799973998 -0.4187731052
H 1.8809272687 -0.2811585052 1.2196805469
H 1.7763640316 1.2022054086 0.4648746819
H -2.6010825225 -1.2858147232 -0.2165949909
