12
0
N 1.9348545987 0.0344312178 0.0490679614
C 0.5952048031 0.1182961321 -0.0056349951
C -0.1838893624 1.2894418953 -0.225811956
C -1.5308595897 1.0169986154 -0.19975447
C -1.5940852422 -0.4543637291 0.0649895132
N -0.1995111958 -0.9314395804 0.157390676
H 2.4164568432 -0.8423972851 0.1073430652
H 2.476604788 0.8537207115 -0.1489694195
H 0.2820955511 2.2548245919 -0.3916957651
H -2.1228524231 -0.6582944134 1.0002935869
H -2.1161631847 -0.9773311699 -0.7407480721
H 0.1077984136 -1.8587389863 0.389306875
