13
0
C 0.571420523 -1.0599417352 0.2454859416
C -0.7543074797 -1.2307409532 -0.4295060994
O -1.4944431114 -0.1151791709 -0.6893013724
C -1.2650883942 1.036782656 -0.1994010473
N -0.1652876183 1.2234550477 0.5772851019
C 1.0028821822 0.4105126396 0.2456792593
H 0.5569214358 -1.4001361117 1.2864389039
H 1.3353789639 -1.6581251222 -0.2639272918
H -0.8997447157 -1.9450843487 -1.2257617298
H 0.0031654659 2.1690019405 0.8717922188
H -2.0009747829 1.8054829573 -0.3740206844
H 1.7719462047 0.6011602845 0.9931927764
H 1.4044243268 0.6839419166 -0.735487977
