14
0
C -0.8549685473 -0.8958210761 -0.3835097569
C -1.1345287815 0.4904891919 0.1699183575
C 0.143740838 1.3260508754 0.0918127371
C 1.4382864717 0.6729131432 0.350908976
C 1.4017011809 -0.7818660797 0.2889182698
O 0.1917748047 -1.5152747361 0.3308704934
H -1.7214694423 -1.5507682132 -0.2903258144
H -0.5961761786 -0.8326676509 -1.4529073466
H -1.9498649918 0.9671593768 -0.3802232621
H -1.4577968364 0.3959344157 1.2095491913
H 0.0831163756 2.2813515 0.6197439525
H 0.3366205853 1.6409927257 -0.9531996646
H 2.0693786261 -1.2221720191 1.0331470397
H 1.9331078957 -0.9312314534 -0.6803051727
