15
0
C 2.7058192153 0.0443586478 -0.0889043472
C 1.3150752058 -0.2375892247 0.3391210812
O 0.3759006954 0.5212187017 -0.1191678617
C -0.8880752871 0.5144260599 0.216606651
C -1.9951518262 0.8136746537 -0.7538579474
O -2.729470851 -0.3078135187 -0.2143259517
C -1.6344023902 -0.7141844069 0.6208701292
H 3.2689287133 -0.8858476491 -0.1847768391
H 2.7143321881 0.5508727134 -1.0543888866
H 3.2440225126 0.6755560349 0.6294041512
H 1.0724560049 -0.8987800018 1.1629192344
H -2.5556922113 1.7446115587 -0.633151709
H -1.7422422699 0.6727849271 -1.8134566099
H -1.1396039049 -1.6403205074 0.2632228396
H -1.9439157947 -0.8573019887 1.6604000662
