19
0
C 2.0589077742 -0.4323508437 1.5879471201
C 2.6333580553 -0.4748664254 0.3974218189
O 0.3463943671 1.7382360725 -1.1929679921
C -0.6905354346 1.3741486385 -0.7037040787
C -1.0270653924 -0.0195146573 -0.3714782433
C -2.4769623538 -0.4324483569 -0.4683950445
C -1.8625453108 -0.2480170504 0.8680551925
H 1.3249626431 0.3277201567 1.8325180218
H 1.2433732045 -0.0695779441 -2.8770167934
H 2.2986659707 -1.1484235752 2.3660817449
H 3.3706045143 -1.2310711911 0.1515195244
H 2.3873702018 0.2469831844 -0.3734519024
H -1.4864107102 2.1138935938 -0.4606655885
H 1.393036832 -0.6148385472 -3.3642154242
H -0.2635770922 -0.7481728711 -0.6079118909
H -3.1861612448 0.3109460197 -0.8107585702
H -2.6689910522 -1.4359310192 -0.8215727089
H -2.1477163771 0.6224774134 1.4459766786
H -1.6141785948 -1.1194645973 1.4578111359
