13
0
C 1.2982563166 0.4730213889 0.0784564091
C 0.2039602488 -0.4373100285 -0.4692740621
C -0.5619632277 -1.1615730178 0.6877027433
C -0.9376786645 0.1649152959 -1.1588562867
C -1.3343876564 1.4316519329 -0.7285617685
N -1.7546525942 2.4825496627 -0.4667173945
H 1.7917683104 1.0169923148 -0.7280928856
H 2.0564212747 -0.1162742312 0.5977664366
H 0.8902566014 1.2037286036 0.7797378889
H 0.6275333309 -1.2291875544 -1.0914483127
H -1.0216631323 -0.4438588391 1.3681847123
H 0.1817464056 -1.7352509189 1.2415287492
H -1.3249362135 -1.8431006088 0.3153747707
