19
0
C -2.6616895132 0.08504505 -0.1043464089
C -1.2308247131 0.4015151703 0.3076361334
C -0.1947507706 -0.4401499951 -0.4436563654
C 1.2227401979 -0.1772724932 -0.0058195285
C 1.7272017848 -0.9526939916 1.176053541
C 1.9999848773 0.7199426148 -0.6046381577
O 1.6760977024 1.5030607112 -1.6694244549
H -2.8169305439 0.2697771559 -1.1705854975
H -2.9027415411 -0.9637082603 0.0862069583
H -3.3789468727 0.6963812909 0.445786644
H -1.1113000116 0.237984318 1.3827148014
H -1.0178072355 1.4618844568 0.1401693503
H -0.3152310675 -0.2769566779 -1.5228109598
H -0.421188519 -1.5013223643 -0.2938385485
H 1.0921859027 -0.7991366509 2.0540086847
H 1.7309708996 -2.02728934 0.9690999107
H 2.7424127727 -0.6592290393 1.4462332811
H 3.0153250704 0.9133542028 -0.2789644505
H 0.7771025805 1.3097318422 -1.9472009335
