21
0
C 2.5953347127 -0.344544256 0.6220092319
C 1.4067524323 -0.549250926 -0.3085092309
C 0.180689802 0.2954018405 0.0504558325
C 0.4682814049 1.7930202324 0.0469496701
C -0.9850881198 -0.0434097325 -0.9339848093
C -2.1895575973 0.27878768 -0.1481409609
C -2.8716605723 -0.9235754752 0.3408020004
H 3.3998959253 -1.0408799363 0.3796633541
H 3.0027447839 0.664926316 0.5491277147
H 2.3130135566 -0.5155881188 1.6642750475
H 1.6979125607 -0.3220036807 -1.3404628087
H 1.1198794823 -1.6049423393 -0.2972140939
H 0.9193217072 2.0932358951 -0.9036346542
H 1.1562870198 2.0701007638 0.8469349342
H -0.4543649359 2.3573458709 0.1798562884
H -0.8773990277 0.6084948001 -1.8050676353
H -0.8977534897 -1.0946533423 -1.2505763369
H -0.1239165362 0.0093820434 1.0665750409
H -3.4661233732 -0.7746709973 1.2421874178
H -2.2881037758 -1.8553778141 0.3827248607
H -3.6037429598 -1.0476778239 -0.4802818631
