10
0
O -1.6012596356 0.9928639257 -1.8282657154
C -1.6259755779 0.0042727328 -1.1578845767
C -0.7445491684 -0.1758916282 0.0239027632
N -0.5674751767 -0.9705947028 0.9600824158
O 2.0193356182 -0.8594618091 -0.4100169071
C 1.7510773784 -0.0253697201 0.4104176542
C 0.3587487119 0.2488302626 0.8652960745
H -2.3021259047 -0.8454530334 -1.3537766982
H 2.5374449698 0.598114996 0.8775413444
H 0.2166277849 1.0129919766 1.6218616453
