16
0
C 2.0596945903 -0.4530523289 0.4026768043
C 0.6274496979 -0.0390987307 0.3837185378
C -0.5065059124 -1.0072826914 0.1937827119
C -1.7243275071 -0.1367702118 0.2417402415
C -1.3457147981 1.1325520927 0.4328003552
C 0.1155025242 1.1930358871 0.5209629569
H 2.2465240333 -1.1978680699 1.1811175154
H 2.7142829229 0.3991013343 0.5866970535
H 2.3533541384 -0.9055282493 -0.5485651961
H -0.4387662745 0.3829633984 -3.1001319723
H -0.4239094292 -1.5432460604 -0.7592959135
H -0.5188281214 -1.7741127927 0.9768544887
H -2.7360633371 -0.5024039066 0.1361224006
H -0.5970846461 0.5362540143 -2.3869822653
H -2.0026384895 1.9888264225 0.5098421373
H 0.6872106086 2.0998578921 0.6718151439
