17
0
C 2.333909312 0.2789454011 -1.8200986311
C -0.3276698841 0.1151594975 1.3013544519
C -0.0724848452 -1.2762946504 0.7790814506
C -0.9950113109 -0.7676054819 -0.3931677563
C -1.0102670584 0.6294487914 0.2814609824
C -1.7555772161 1.3740773519 1.3893505236
O -0.8109450007 0.7991007172 2.3847295894
H 3.0820262031 1.0366051943 -2.0479303132
H 2.8089526071 -0.5473846084 -1.2922820508
H 1.8986040741 -0.0892686769 -2.7483150026
H 0.9588614245 -1.5277069783 0.5345330897
H -0.5166906435 -2.0735294784 1.3747733001
H -1.9619692836 -1.2719275862 -0.3662762307
H -0.5934966246 -0.8089544975 -1.4054070434
H 1.5539209696 0.7151260093 -1.1963308086
H -2.7503241929 0.9837221162 1.5997312316
H -1.7384935303 2.4634378792 1.4103072174
