12
0
O -2.6251836668 0.9778953438 -0.1823369187
C -1.7857348283 0.1588625279 0.5035662158
C -0.5131279427 -0.0260746121 0.1185699936
N 0.0872276072 0.5680113238 -0.9800154678
N 1.4141444874 0.0322232507 -0.9407039781
C 1.4442018919 -0.8667420309 0.2523036086
N 0.332319014 -0.8802458322 0.8371636918
H -2.1319108455 1.3407206714 -0.926667374
H 1.6337873699 -0.4826304249 -1.799587778
H -2.2126495179 -0.3233729906 1.3679645836
H 2.1139917044 0.7768853359 -0.8621134562
H 2.3479147266 -1.4020635627 0.5067918792
