14
0
C -0.9112368798 -1.0497707509 0.484658704
C -1.7756616883 0.1755377263 0.4689797709
C -1.511627702 1.3051497061 -0.1786412656
O -0.4241594436 1.5877989919 -0.9339019392
C 2.6521817201 -0.6577926588 0.006896007
O 2.9221009183 -1.5537577844 0.6857473705
N 2.2432552668 0.2300439766 -0.7106616032
H -0.2762693558 -1.1170627632 -0.4025906043
H -0.2606308538 -1.0836262548 1.3642200056
H -1.5206219154 -1.9544463473 0.5043633137
H -2.6984380499 0.1521894227 1.035532396
H -2.1980224361 2.1433735061 -0.1575592458
H 2.8099232422 0.9940109541 -1.0368022452
H 0.2363301773 0.8865592756 -0.8627156647
