16
0
O -1.3547446952 0.7592155246 0.0106099674
C -0.8908498891 -0.0725147352 -1.3339059291
C -0.247696394 -1.2828770102 -0.6843962288
C 0.800225866 -0.8606183688 0.3778930276
C 1.0940007855 0.6376201464 0.3183833362
C -0.1776900746 1.4552305866 0.514660836
H -1.6885741823 0.1623661678 0.6959869831
H -1.8878073387 -0.332180667 -1.7112843394
H -0.9487785861 -1.9953654178 -0.2102528355
H 0.231447464 -1.835866415 -1.4974699876
H 1.7308652626 -1.4186210206 0.2637876676
H 0.4320973456 -1.1111595386 1.3796636222
H 1.8067727738 0.9189976095 1.0986155235
H 1.5316112904 0.8843191606 -0.6465005375
H -0.3803539062 1.6596485393 1.5693118669
H -0.1545547213 2.3910564382 -0.0381319727
