16
0
C 1.8512982133 0.7966096985 0.0419001028
C 1.6829152144 -0.6904218413 0.2952619786
O 1.0431720658 -1.3573119621 -0.7757128796
C -2.0079767735 -0.7610913369 0.3946283878
C -1.9758044949 0.5600620662 1.1036542189
C -2.0163592609 0.2747618966 -0.3692098112
H 2.3853122374 1.2731027514 0.8671952588
H 0.8787100769 1.2876599615 -0.0542170867
H 2.4107567433 0.9656973896 -0.879416787
H 2.6579585363 -1.1694562182 0.4030528312
H 1.1362899331 -0.8540732074 1.2340095599
H -2.0261142787 -1.8306555203 0.5103697318
H -2.8738054075 0.9208395828 1.6018177433
H -1.0496875671 0.905706876 1.5609419129
H -2.0572989679 0.7037321025 -1.355056348
H 0.1486647297 -1.0115012387 -0.8433268134
