11
0
C -1.7780213784 -0.8986892669 -0.0962136579
C 0.9293093907 1.1841382214 0.8304913831
C 1.8299040938 0.2721038057 0.4181068434
C 2.6587497904 -0.5867527068 0.1673911265
C 0.2674852038 2.0222674237 -0.0454629914
N -0.3446226043 2.7746732774 -0.6823846728
H -0.9126990612 -1.1817246646 -0.6949915663
H -2.5095965831 -1.7048074066 -0.1185118137
H -2.2210207825 0.0075381197 -0.5059221673
H -1.470790502 -0.7197026755 0.934180072
H 3.3813324329 -1.3334691275 -0.0694475557
