19
0
C -1.4354280912 -0.8572402829 -0.6845129
C -0.9364950518 -0.2571189916 0.5946889681
C -1.5064646724 0.7900536279 1.1783442038
C 0.2359721435 -0.9185517578 1.25085378
O 0.9723783696 -1.8679994473 0.4953286118
C 1.6265439664 -0.662035666 0.8601014058
C 2.0130647982 0.285515562 -0.2351469944
H -2.3114071113 -0.3230525295 -1.0510639291
H -0.6638216157 -0.843398603 -1.4567395974
H -1.6965367763 -1.9073870872 -0.5347737089
H -0.7240695402 2.4921898931 -2.0352339321
H -1.1308177997 1.1911145595 2.1135204509
H -2.3722185861 1.2771717238 0.7459472418
H -0.7378590002 2.155347422 -1.3697032803
H 0.0616375333 -1.2203514149 2.2823786666
H 2.3819646102 -0.8032493238 1.6321576659
H 1.2128025447 0.4092002248 -0.9633281326
H 2.9009103147 -0.0794336416 -0.7546146229
H 2.2447819646 1.2662507327 0.185664103
