15
0
C -2.3278671053 -1.3524526568 0.1178888511
C -1.4247226773 -0.197877602 -0.15525438
C 0.5081837936 1.0707032394 0.0591625605
N -0.2900920092 -0.0875318426 0.3802884587
C 1.90311581 0.6481355691 -0.406983785
C 2.6655337222 -0.0429910006 0.6306765171
N 3.2820911763 -0.5646163577 1.4446763454
H -1.8561545246 -2.045774306 0.811436294
H -2.5695893751 -1.8729395194 -0.8121750932
H -3.2718971858 -0.9993736191 0.5405533055
H -1.7984710691 0.5675860485 -0.8536119225
H 0.0529971037 1.6945898152 -0.7235334502
H 0.604940089 1.6798335434 0.9614989375
H 1.8230191479 -0.0123662865 -1.2728751298
H 2.4730381037 1.5270599751 -0.7157275089
