12
0
C -0.548968877 -2.1275834081 -0.5460977289
O -0.2767069028 -0.90706369 -1.2192089023
C 0.0223744152 0.1409615798 -0.452537299
N 0.0667971555 0.046136009 0.8599057076
O 0.3849269247 1.2180087269 1.3862044375
C 0.5528505569 2.1336478864 0.2688498139
C 0.316296786 1.4376699274 -0.9732207594
H 0.3126070531 -2.4476801408 0.0446020028
H -1.4100851898 -2.0217979924 0.1180542843
H -0.7623282317 -2.8564512467 -1.3237122502
H -0.1509562104 2.9605049572 0.4124957259
H 1.5675395201 2.5420743914 0.323947968
