11
0
O -2.1392173563 0.838765625 0.1119770732
C -0.9653297319 1.0974546827 0.1618700191
C 0.0360580586 -0.0120969893 0.0646604609
C 0.1361665878 -0.8819437721 1.2851306074
O -0.6227950463 -1.269934203 -0.1760507703
C 1.2372452989 0.1723151462 -0.7995375189
O 1.7766523767 1.2348296039 -0.9361956487
H -0.579197999 2.1181776691 0.2938346391
H 1.0516751233 -1.4824658625 1.1474165989
H -1.5704901966 -1.0746879547 -0.020464502
H 1.629669885 -0.7650959454 -1.2411199587
