13
0
C 0.9738142209 1.0277997996 -0.4044613597
C 0.511631292 -2.0667369159 0.7372572222
C -0.235981807 -0.8450871564 0.7746535287
C -0.2893829157 0.1617535876 -0.3847495377
C -1.4896775286 0.9982758224 -0.2850000437
N -2.4297924295 1.6480420228 -0.1838300706
H 0.943105942 1.7455147277 -1.2234211703
H 1.8509003833 0.3915587341 -0.5300964705
H 1.0769061621 1.5785365635 0.531418185
H 0.6956202484 -2.3032762756 -0.3312180184
H -0.3241631911 -0.3673352403 1.753410983
H -1.1193139604 -1.5653191545 0.7458316143
H -0.3614694164 -0.393295515 -1.3244018621
