18
0
C -2.2222403322 0.3867849007 0.4549520501
C -1.8664285262 -0.811399452 1.3235266911
C 1.2911108718 -1.3327460334 0.1193770999
C 1.2603304544 -0.3137740829 -0.856182869
C 2.5119664895 0.6250919443 -0.8018548375
C 1.2621466094 1.1351979477 -0.2837735708
H -1.787392805 0.2967566948 -0.542955663
H -1.8525427241 1.3174361281 0.890858546
H -3.3028459415 0.4871178695 0.3344297326
H -2.3065931877 -0.7247775654 2.3189290502
H -2.231137802 -1.742085122 0.8842770583
H 0.8050924254 -2.2358306532 -0.2950273965
H -0.7845630495 -0.9078967215 1.4550307657
H 0.8164121908 -0.4004961903 -1.8462237171
H 3.2796896009 0.3157129738 -0.1088679275
H 2.8475323064 0.9351135775 -1.7821297628
H 0.6830962433 1.825859751 -0.8814851279
H 1.1242701764 1.1968230332 0.7855798782
