16
0
C -1.2542105606 1.3500582705 -0.0051473794
C -0.4018335675 0.1336267017 0.3255599591
C -1.1458966046 -1.1573452379 0.0008753675
O -0.3948125057 -2.3070339509 0.3157626115
N 0.8234582528 0.1626344821 -0.4554047371
C 1.9173365389 0.2396385477 0.1549147822
O 3.0974947452 0.2771829007 -0.476580559
H -0.7330910702 2.2701245809 0.262079448
H -2.1991126243 1.3216532753 0.5415182217
H -1.4708237952 1.3839757301 -1.0746505315
H -0.1772799167 0.1247973567 1.4027665007
H -2.0598716633 -1.2109534176 0.5953166325
H -1.429443415 -1.1470874896 -1.0600558925
H 0.4002341843 -2.2871241179 -0.2226497841
H 2.9126775121 0.2507975732 -1.4239854743
H 2.0425064895 0.2866257952 1.2390458348
