13
0
O 1.4022011168 1.7511766541 0.8343591165
C 0.8260187281 0.9716780663 0.1442980665
N 1.4292372553 -0.3552924354 -0.2469269549
C 0.2657146978 -1.3423279254 -0.1307901969
C -0.8532148089 -0.4243917723 -0.5675755211
C -1.5419689181 0.4696448954 0.396438729
N -0.4299359279 0.9878759198 -0.4093551541
H 2.206683656 -0.578052953 0.3675278726
H 0.1931838876 -1.5317727616 0.9460246528
H 1.7855107686 -0.3334633168 -1.2001199794
H -1.3631881467 -0.6006672088 -1.5106397326
H -2.5016921004 0.9108333136 0.1526170338
H -1.3468652083 0.325336524 1.4529460678
