13
0
C -1.1020017781 -0.650936244 -0.1991327628
C -0.3383246631 0.5213253883 0.228538252
O 0.0137342861 -0.1995886169 -0.9488732371
C 2.0304883032 -1.7725240462 -0.0199296943
O 1.638964564 -1.9306777906 1.1031521748
C -0.8481926447 1.8600871268 0.0483568173
C -1.2638584577 2.9749757935 -0.0781423107
H -0.955326203 -1.5847189324 0.3357918173
H 1.7704374304 -2.4722424935 -0.8342566399
H -2.0641218993 -0.5063465065 -0.679022663
H 0.3588242894 0.3919391249 1.0520411633
H 2.6865241526 -0.9287856543 -0.2985934553
H -1.6348233802 3.9659328509 -0.1952624617
