17
0
O 1.4766125018 0.6884514477 0.7462559929
C 2.2716916072 -0.0927068026 -0.0090476468
C 2.0042530105 -1.2452584118 -0.6109042021
C 0.1265583849 0.3102521705 0.9775327757
C -0.8146148721 0.870209162 -0.0515048342
C -1.2738049991 0.076029015 -1.2360352925
C -2.22079155 0.35147403 -0.1077910243
H 3.2593062489 0.3517072337 -0.0702721648
H 2.7977708538 -1.7353365949 -1.1558929242
H 1.0391488695 -1.7293149573 -0.5912846171
H -0.1111439994 0.7279311909 1.9579731043
H 0.0361970217 -0.7789496621 1.0503333357
H -0.6911334207 1.9360095943 -0.2078162171
H -1.4181775435 0.6003581567 -2.1710717901
H -0.9050229459 -0.934633573 -1.3473010907
H -3.0211524028 1.0623191865 -0.2626073233
H -2.4784727652 -0.4744801855 0.5442709186
