16
0
C 0.216597072 0.0138077749 -1.3208734751
C -1.0597589072 -0.4247319162 -0.6103117363
C -0.8521151287 -1.5799921213 0.3619043552
C 0.806881851 1.6086332566 1.955603248
C 1.0152294309 1.1793370045 0.7451612756
C 1.2229047081 0.7381611437 -0.4608462194
H -1.7921172736 -0.7179189373 -1.3674170548
H 0.7077427148 -0.8593018598 -1.7646782282
H -0.0356607914 0.6692455329 -2.1613707644
H -1.490277305 0.4314313123 -0.0822422377
H -0.1431636068 -1.3186227368 1.1486499035
H -1.7907190703 -1.8650626068 0.8403841599
H -0.4630285876 -2.4604977705 -0.1559805635
H 0.4060165442 2.5991090672 2.1386496432
H 1.0316358977 0.9883516867 2.8162273408
H 2.198890452 0.92571317 -0.9018196469
