12
0
O 0.5844284102 0.0497354434 1.7492174711
C 0.7380971835 0.1211028513 0.5582066232
C 2.0937751387 -0.0366189025 -0.0599992771
C 2.3713791006 0.1631901122 -1.3093864116
C -0.3854191805 0.3596854133 -0.3911732143
C -1.5853016316 -0.5066339564 -0.218501051
N -1.6255970705 0.892254849 0.1374134078
H 2.9266970577 -0.3106153285 0.5873500061
H -0.0975477921 0.6928794165 -1.3849891983
H -1.5421613883 -1.2450050414 0.5744070508
H -2.1514027587 -0.7845444936 -1.0988022245
H -1.5311110691 1.0014156367 1.1429558179
