13
0
C 2.1512640085 0.5503669533 0.1280420116
C 0.7768621397 -0.0159478129 0.0535764258
C 0.4477915434 -1.3244258298 0.0776546577
N -1.0981541486 -1.1813552012 -0.0328104191
C -1.3614941991 0.2499886369 -0.1003663577
O -2.6434599305 0.6092088602 -0.197260101
N -0.3168239358 0.9333635862 -0.0539885701
H 2.2565632085 1.2149030623 0.9892601057
H 2.3867448415 1.1338742491 -0.7656372989
H 2.8727601425 -0.2599672113 0.2195670119
H -1.4215708494 -1.677928815 -0.8607579264
H -1.5327536107 -1.6215766368 0.7759295413
H -2.6777432102 1.5716891589 -0.2297570808
