12
0
O 3.4078901677 0.2912744789 0.1890705947
C 0.407116013 0.0277336603 -0.1076814842
C -0.8477078999 0.8399946535 -0.2974254362
C -1.811589965 -0.3271106987 -0.3727607473
C -0.6768933679 -0.8250421181 0.4995806398
O -0.4835683565 0.5240891614 1.1207837454
H 3.7563666758 -0.035285964 -0.6406012675
H 2.4401521285 0.2240446562 0.094278401
H -0.9444260731 1.8914997118 -0.5398734609
H -2.800507427 -0.2137972054 0.077847876
H -1.864358659 -0.802099251 -1.3523577591
H -0.5770372366 -1.6735740849 1.1656138981
