11
0
C -0.8983942586 -0.8649523155 0.438271689
C -0.4727420693 0.5702329565 0.1647691956
C 0.9679122379 0.6490205711 -0.3488548916
C 1.0552876205 1.148599285 -1.5493235166
C 2.0691002305 0.1972792281 0.4287250462
N 2.9380935412 -0.1760717212 1.0800459628
H -0.241431607 -1.3395726516 1.1686365155
H -0.8776233615 -1.4580883791 -0.4764426558
H -1.9143907023 -0.8806626716 0.8347276693
H -0.5220801442 1.1866254186 1.0646167617
H -1.1295364873 1.0361892798 -0.5746167761
