14
0
O -1.928458558 0.0111393971 1.744173831
C -0.361835581 0.0157622173 -1.27600356
C 0.298354747 1.148232696 -0.5543646651
C 1.1963348941 0.4506249338 0.4189636302
C 1.0698278065 -0.8754748635 0.2694346031
C 0.0944513689 -1.1473192865 -0.7908214011
H -0.9884068206 -0.0792487559 1.9213339233
H -1.0865503881 0.1451504959 -2.0678039175
H -0.4304681077 1.7922286727 -0.0495199322
H 0.8635748914 1.7924053566 -1.2371960421
H 1.8446577168 0.9623501989 1.1163811893
H 1.5983850549 -1.6356972 0.8289218548
H -0.1977235524 -2.1356769402 -1.1198432477
H -2.0236044721 -0.3433319223 0.856590734
