11
0
N 1.499222232 1.2289352341 -0.1240831285
C 0.5656194431 0.4259640448 0.0566029767
O -0.7856339544 0.8208935566 -0.0695854799
C -1.1484542422 2.0594829137 -0.285158408
C -0.5205190141 -1.6547206444 0.5501695295
O 0.6560815688 -0.857011539 0.365919181
H 2.4032966005 0.7909291732 0.001434301
H -0.2079510033 2.6529719037 -0.327320518
H -1.1308912859 -1.268223257 1.3649143286
H -0.1480356954 -2.6441937745 0.8008703414
H -1.1093296491 -1.6962446111 -0.3647051237
