17
0
C 2.0808643416 -0.4843652699 -0.0352254902
C 0.856000564 0.018785871 -0.0517356227
C -1.1919471488 0.3724264851 -1.5228048035
C -1.4894367985 0.2100407341 -0.0732493539
C -0.3531917104 -0.5669840909 -0.6702741585
O -1.0025408293 1.1749387984 0.8134482772
C 0.4041612451 1.2850714598 0.6434332728
H 2.3256198271 -1.391656827 -0.5735596839
H -0.4128817883 -2.2428574727 2.5260700277
H 2.8813723438 -0.0042722192 0.5152329083
H -0.7481820817 1.2975836048 -1.8679226849
H -1.8678212772 -0.0968412911 -2.2253329049
H -2.4097397437 -0.2430818976 0.2679310593
H -0.3994915415 -1.6321753481 -0.848496843
H 0.0011382996 -1.8129886913 2.0791160623
H 0.6420062648 2.1652567083 0.0335354907
H 0.8628010332 1.4162304464 1.6245134474
