14
0
O -0.5279483221 1.9004377773 2.267040668
C 0.1845105416 1.4907026779 1.466703442
C 1.0270821252 0.9546232732 0.5711983058
C 1.0807735747 -0.7037130313 0.5371783339
C -0.3354439108 -1.204966438 0.9202323348
C -0.877472515 -0.3562218981 -0.2429095062
N 0.5067881866 0.1164735681 -0.5316035503
H 0.4094925483 -0.1161497888 -3.8707035442
H 1.9730355743 1.4562609806 0.4292915033
H 0.5692186616 0.0169567498 -3.1529814944
H -0.6956879943 -0.9917771335 1.928547612
H -0.4146928918 -2.2800434656 0.7637005222
H -1.6127629204 0.4258368676 -0.0408380987
H -1.2270406577 -0.931278139 -1.0985445285
