15
0
C -1.9208115873 0.04365137 0.6535175949
C -0.8433670481 0.0509429929 -0.3757940479
O -0.0790446004 1.2157227089 -0.4541875289
C 1.2158061037 1.059742954 -0.8011859418
C 1.8543610979 -0.0693251354 -1.0922909266
O 0.1686661771 -0.4170179434 1.8561179949
C -0.7055632104 -0.8085473093 0.8517114263
H -1.9681654482 0.9239816714 1.2810332266
H -2.8676719456 -0.4216809128 0.4168264198
H -1.0083398917 -0.4312279419 -1.335173178
H 1.0580002419 -0.3917202036 1.4904161271
H 1.7137263032 2.0222828162 -0.8196842055
H 1.3723875407 -1.03735997 -1.0966504147
H 2.9003653239 -0.0201050814 -1.3577317602
H -0.8077170566 -1.8828750155 0.7175122141
