13
0
C -1.5809829429 0.6204969894 -0.4920904716
N -0.3234813629 0.2772204869 -0.3593999676
C 0.4993528333 -0.7776073067 -0.5017730228
C 1.7593454935 -0.0919186134 -0.0451799496
C 0.8112353299 1.0874666925 0.1215913202
O 0.8195409512 2.2134391794 0.4650680517
H -1.7593884734 -1.2171746754 1.4496192738
H -1.8402387313 1.6372788027 -0.2476661204
H -2.2890074019 -0.0911293013 -0.8846606339
H 0.2367851419 -1.7516451232 -0.8762197798
H -1.239961046 -1.7422191103 1.5766483804
H 2.2151517515 -0.4226899704 0.8931830054
H 2.549695457 0.08603095 -0.7816010859
