11
0
O 1.6837744328 0.115039148 0.4710108183
C 0.6075752664 -0.5351002304 -0.1739397631
C -0.6381945049 0.2380591058 0.2415591167
O -0.5423515863 1.5840008572 -0.1118724846
C -2.6863741531 -0.8070855947 -0.9333155271
N -1.7710898608 -0.3159020127 -0.408376088
H 2.5127615041 -0.1885760731 0.100413721
H 0.6973763964 -0.4879893171 -1.264222941
H 0.5132663303 -1.5799932541 0.1387068798
H -0.7910725481 0.126579104 1.322319443
H 0.3478657232 1.8625072673 0.1302518252
