12
0
N -2.0149589183 0.2241849216 0.017114384
C -0.7487059557 0.1939124534 0.0502914394
C 0.2726209607 1.2485371314 0.4126682913
N 1.5719443264 1.1573967495 0.4311773202
C 2.1971212278 0.046409906 0.1088858665
N 1.3738064429 -0.9866769266 -0.2410976102
C 0.188462135 -0.8124897047 -0.2296448428
H -2.0011279056 -2.0078448142 -0.627156291
H -2.4024289804 1.1198767624 0.2847153768
H -0.1864503374 2.1913692848 0.6922583962
H 3.2653442954 -0.0794491954 0.1094815506
H -1.5442602908 -2.5859655682 -0.7861708808
