12
0
N 1.8439112838 -0.3893593456 0.084543709
C 0.4007325174 -0.1088683949 0.0222464998
C -0.2606454261 1.0885725488 -0.1740041685
C -1.6149332153 0.6971876346 -0.1294031689
C -1.6260127971 -0.6774870779 0.0868888246
N -0.3721853412 -1.179889037 0.1813067574
H 2.3338490229 -0.1701925776 -0.781038356
H 2.3123863012 0.081420965 0.8567200937
H 0.1464090521 2.0774365742 -0.3243302485
H -2.4740357528 1.342388507 -0.2419236104
H -2.4859788498 -1.3265857518 0.177710795
H 1.8755942051 -1.4003850448 0.2408118727
