17
0
C 1.7030487494 1.0149832734 1.4565454127
O 1.1772806855 -0.6664130469 -0.8779239713
C -0.0369365768 -1.3623994545 -1.2081807621
C -0.8698713197 -0.0959242511 -0.9680091125
C -2.0573155833 -0.1703400276 -0.0346749399
C 0.45133388 0.4811940364 -0.439037626
O 0.447294492 0.6371983808 0.9349055915
H 1.5767065293 1.151324216 2.5290681887
H 2.0453596525 1.9580172801 1.0123742998
H 2.4545211668 0.2422203901 1.2735008885
H -0.2392629103 -2.1756662562 -0.5040230195
H -0.0115859968 -1.7561158735 -2.2261667025
H -1.1448085524 0.3838904012 -1.90822356
H -2.4495937557 0.8243055679 0.1832724519
H -2.8600361539 -0.755815275 -0.4882702359
H -1.7822469645 -0.6346970408 0.9122124851
H 0.8501326578 1.3877246795 -0.9156833884
