14
0
C -0.5251988979 1.6664894686 0.2232363167
C -0.0475713437 0.2453590168 -0.0295151468
C -1.1722515591 -0.7664436723 0.0451478277
O 0.9172483686 -0.1505633448 0.938614375
C 2.7202857742 -1.6821390814 -1.0284613354
O 2.1982944939 -2.6754041961 -1.0840686499
H -1.2646419291 1.9659615593 -0.5222779869
H -0.9790897128 1.7403789093 1.2138002543
H 0.305127623 2.3754868689 0.1712084875
H 0.4060259417 0.1971828799 -1.0307490783
H -0.7911161016 -1.7734195149 -0.1279199805
H -1.9360343786 -0.5500911596 -0.7035847471
H -1.6355491987 -0.7409291024 1.0336648573
H 1.6518609204 0.4656333686 0.9106888065
