15
0
O 0.6205838817 0.8994192967 2.7025773625
C 0.7302075403 1.5558355758 1.7020988456
C -0.1159679703 -0.9492854941 -2.2548158966
C -0.3569052098 -0.6402834863 -0.9850647777
O 1.230234477 -1.7064787427 1.7370663621
C -1.2331849952 0.4197867711 -0.5916338375
C -1.9560447941 1.307028409 -0.2284961179
H 1.053493476 -0.9140721078 2.2659709784
H 0.3784026189 2.6005241016 1.6589218614
H 1.1904717585 1.1507589203 0.7853558916
H 0.5607324303 -1.7565856409 -2.5040913791
H -0.5835431425 -0.4132880832 -3.0719129001
H 0.1235974138 -1.1878294508 -0.1763960823
H 0.9766689899 -2.4475579209 2.2874304938
H -2.6187464744 2.082026852 0.0766281962
