13
0
C 2.4454116507 -0.3224434136 0.6787559341
O 1.0547461463 -0.6194779259 0.510279496
C 0.3713243887 0.1779378657 -0.2518085035
C -1.0301280562 -0.3428658695 -0.3351913185
C -2.0593587484 0.7743818552 -0.4563130462
H 2.6267927647 -0.1678274483 1.7418039441
H 2.6912166351 0.5691283567 0.1040689229
H 3.0147463888 -1.1834052985 0.3302236218
H -1.801626058 1.447089879 -1.2750107534
H -1.0208093641 -0.927381109 -1.2671596241
H -1.2681860901 -1.0421684461 0.4754696598
H -3.0570633665 0.3713982573 -0.6369673283
H -2.0989672909 1.3677162971 0.4589609949
