15
0
C 1.0326420354 -0.2668292135 1.3653530741
C 0.3572988464 0.4707718688 -1.8020817738
C 0.0735803348 -0.7222324711 -0.9288586903
C -0.2060487672 -0.203643322 0.4909024553
O -1.2194751392 -0.9033619716 1.1882299996
C -0.602905618 1.2422175064 0.1781617594
O -0.0327608048 1.5164837697 -1.1344391195
H 1.8549859035 0.2857155418 0.9064535071
H 1.3419518615 -1.3036646186 1.5000365547
H 0.8240560451 0.1620302935 2.3464868591
H -0.8178286099 -1.1876535238 -1.3731742283
H 0.8681775009 -1.4658844375 -0.9959611514
H -1.984622546 -1.0075420929 0.6183753431
H -1.6855708519 1.3635057394 0.1006868895
H -0.2058701905 1.9848689313 0.8680275214
