15
0
C -2.1742533499 -0.1482090317 -0.2320192513
C -1.0031933844 0.7427421983 0.161565821
O -0.9551595776 0.9022964982 1.5520830662
C 0.2966218993 0.1922114321 -0.3610597291
C 2.4883904402 -0.5641965521 -0.0870420371
N 1.2471330076 -0.0376836408 0.4278197864
H -3.1006558057 0.2784134137 0.1518483517
H -2.2581422002 -0.2377847016 -1.317780709
H -2.0507907528 -1.143577319 0.1985444242
H -1.1405334793 1.7272628872 -0.3137956197
H -0.0582017022 0.6524270021 1.818393157
H 0.3651611463 0.0097133832 -1.4421777023
H 3.2973922521 0.1267198451 0.1565156223
H 2.4720830398 -0.7265267694 -1.1721495782
H 2.710159467 -1.5098956454 0.4104513979
