12
0
O -1.1374536118 0.9763416194 1.1825366172
C -0.3321618477 -0.1905707828 1.2825518492
C -1.1748434727 0.0569553929 0.1144267018
C 0.9460890391 0.0791913005 0.4963947621
C 0.0546865673 0.3677424962 -0.7606504094
C 0.2577809338 -0.5741160318 -1.8487417796
N 0.4054249787 -1.3361433122 -2.6939316836
H -0.4843488478 -0.8320459762 2.1391652738
H -2.1284938731 -0.3465794842 -0.1970990309
H 1.5651147809 -0.8054585155 0.3592516186
H 1.5494418495 0.9123968187 0.8528043131
H 0.075626504 1.3880134752 -1.143609232
