18
0
C -2.6316799795 0.4491219169 -0.6572879615
C -1.1174035274 0.5066248863 -0.5014695902
C -0.6762772046 0.627042143 0.9509055765
C 2.0033896104 -1.6726529393 0.526842629
O 2.7170900272 -0.6001814768 0.4505702485
C 2.6760726991 0.3694973453 -0.4030574068
H -3.0485152343 -0.409687229 -0.1250937391
H -2.926202419 0.3659064102 -1.7052692094
H -3.1007104767 1.3480036725 -0.2493480499
H -0.7225806542 1.3529193368 -1.0721048011
H -0.6755946283 -0.391814128 -0.9453938346
H -1.0892002431 1.5298006954 1.4082839415
H -1.0177864822 -0.2278114338 1.5390923312
H 2.2360920949 -2.3234075729 1.3511394145
H 1.2467391511 -1.8656662564 -0.2217728627
H 3.3981064487 1.1506807203 -0.2434192744
H 0.4120908644 0.6831024378 1.0353957604
H 1.9781449535 0.3255264717 -1.2286391722
