16
0
C 2.2015252554 0.5162421382 0.0348675663
C 1.0951782181 -0.4070065092 -0.4810308587
C 0.0507223102 -0.614796247 0.5964150286
O 0.1466945791 -1.5140375312 1.3953667287
C -1.1157308215 0.3503678893 0.6326369216
C -2.2336009591 -0.1376246374 -0.2919817646
H 2.9602970561 0.6755229891 -0.7318357636
H 2.6847718503 0.0783271863 0.9091207932
H 1.8075523377 1.4940569092 0.3210136165
H 1.5107003511 -1.3811588472 -0.7412272262
H 0.6355657838 0.0247761988 -1.3740858712
H -2.5865729362 -1.12071258 0.0225210748
H -1.4760022767 0.4062842604 1.6603190945
H -0.7858443908 1.346219387 0.3237417107
H -3.0796056142 0.5499541464 -0.2697067309
H -1.8946857434 -0.2147597526 -1.3274203198
