13
0
C -1.6763611351 0.6372101794 -0.284770422
C -0.5044738972 -0.1799076593 0.1131293316
C -0.1873468119 -1.6754679594 0.0448853147
N 1.0817505148 -1.5843960904 -0.0440314654
C 0.937138485 -0.0600540831 0.0002401787
N 1.8134453212 0.8510952422 -0.5827113671
O 0.3345656335 0.257930231 1.2204902917
H -1.3894345948 1.6860056149 -0.3514422707
H -2.052058397 0.309246896 -1.2551882083
H -2.4823042379 0.5388002236 0.4451263428
H -0.7770314252 -2.5855006535 0.1081908342
H 2.5923412907 1.0446247056 0.0333457148
H 2.1668902538 0.5008903529 -1.4617412748
