14
0
C -2.1664840404 0.5256687223 -0.545922604
O -1.0947878642 0.6075239409 0.3674792067
C -0.3291569028 -0.5267921962 0.4081178492
C 0.9944949358 -0.4922377093 0.2802301444
O 1.7720155804 -1.6090263035 0.4088676234
C 1.8021037984 0.7276257189 0.0124411641
H -2.8343262262 -0.309150568 -0.300579313
H -2.7238509566 1.4583720707 -0.4732522988
H -1.8029178356 0.3966961869 -1.5713218622
H 1.2161711221 -2.3692487659 0.5967129716
H -0.8651121194 -1.4576852743 0.5998788977
H 2.400812652 0.5870760514 -0.8898279948
H 2.4906891659 0.9116473647 0.8397981639
H 1.1553196906 1.5926107617 -0.1111789483
