14
0
C -2.4859217987 0.3791302803 -0.1169086669
C -1.0318839588 0.4363260104 -0.4815039129
O -0.3938949578 -0.6844409791 -0.0999709085
C 0.9980443952 -0.7687897021 -0.4163224964
C 1.8355731027 -0.0452558166 0.5974736187
N 2.9010246104 -0.5662810306 1.0255650927
O -0.4863730486 1.3504678137 -1.0375161233
H -2.9813786053 1.2817941984 -0.4624853929
H -2.5890261882 0.2860096005 0.9647569445
H -2.9458681945 -0.5005513957 -0.5672282249
H 1.4681746176 0.9408502194 0.9010797482
H 1.1730441323 -0.3435650739 -1.4073069354
H 1.2505066474 -1.8266317402 -0.4148162995
H 3.3768762464 0.0538866154 1.6770465565
