15
0
C -1.6218674114 1.013667302 -0.1380091296
C -1.0462910269 -0.3547330861 -0.4611235317
N 0.2312192806 -0.2534658417 -1.1937926313
C 1.4801422468 -0.3250569064 -0.8349623583
C 1.8571635409 -0.5575282158 0.5830850308
O 0.9168708414 -0.5484595957 1.6676603403
H -2.5878277766 0.9164279277 0.3602400206
H -0.9530762914 1.5685567982 0.5224941725
H -1.7665018567 1.6090193507 -1.042250421
H -1.7320999433 -0.9099637665 -1.1056377093
H 0.0918559938 -0.0962528969 -2.1827694568
H -0.8839980361 -0.9325655174 0.442204348
H 2.6782496231 0.1349643364 0.7992030339
H 2.3182990463 -1.5519726076 0.5805806778
H 0.8156187693 0.3539847191 1.9723556142
