11
0
C -1.1477749541 0.3634948818 -0.5896548028
C 0.110373902 0.0601795827 0.1777943111
O 0.0089152748 -0.8815158314 1.2293428299
C 0.7835729356 -1.2401335958 0.1003109406
C 0.9333312213 1.2233690578 0.4933170594
N 1.5651689435 2.1544539627 0.7146271947
H -1.6868030111 -0.5629668872 -0.783967323
H -0.9101914727 0.8469928489 -1.5378109164
H -1.7894450167 1.0289514049 -0.0115516978
H 0.351925215 -2.0029008943 -0.5411545284
H 1.8538549625 -1.3026505302 0.2693029329
