17
0
C -1.154512881 -1.4332790739 0.3574136165
C -0.5742171958 -0.4664256833 -0.6309895198
C 0.3886825918 -0.7925903767 -1.4851355814
C 2.2189897033 0.6815996677 1.2441494263
O 1.8650252151 1.7853899865 0.9316828371
C -1.1481826458 0.9293914559 -0.5956208765
O -1.0069503822 1.5400048136 0.6699584884
H -2.2109796247 -1.6137704516 0.1390592567
H -0.632228904 -2.390034017 0.3435392032
H -1.1131732024 -1.0151431369 1.3656554306
H 0.788517641 -0.0672614198 -2.1854031209
H 0.8001413051 -1.7954903364 -1.5259567788
H 3.288686715 0.4354781574 1.3613373475
H 1.4957190083 -0.1312850568 1.4258560306
H -0.079109361 1.7915651103 0.7770600587
H -2.2237191855 0.8836353731 -0.7927126167
H -0.6921887974 1.5375589878 -1.3850162016
