18
0
C -2.07101399 -0.718505856 -0.731100159
C -1.363695821 0.4400105741 -0.0494976829
C -0.0763220198 0.0985651535 0.6680751179
C 0.6405581338 1.2617170196 1.2917200014
N 0.4318692014 -1.0578342042 0.7675788588
C 3.4490791906 -1.2876408999 -0.1697698429
O 3.922865373 -0.7879276795 0.7186548134
H -1.443092905 -1.1743915412 -1.499668368
H -2.3510844269 -1.4950076177 -0.0158781841
H -2.9854248527 -0.3739048435 -1.2148061864
H -1.1322044738 1.2226031926 -0.7801260801
H -2.0300303486 0.9160715605 0.6779875478
H 1.098481039 0.527894887 -2.465480713
H 0.9469601856 1.9720163531 0.5188408247
H -0.016595275 1.800977309 1.9782861869
H 1.5206045753 0.9155866934 1.8289063177
H -0.1389491212 -1.7564318673 0.2948448367
H 1.2742025353 0.0159027663 -1.9519712885
