9
0
O 2.1727478636 -0.5831535323 0.1156109662
C 0.9238492263 -0.0705291847 0.0592866313
C 0.6425924919 1.2568321531 -0.0595822759
O -0.9059023018 1.0676198917 0.0187554277
C -1.2138958298 -0.3004577659 0.0464941745
N -0.1517768609 -0.967259067 0.120293575
H 2.0960607661 -1.5399519564 0.1149933267
H -1.4317531585 1.7002365119 -0.4840712262
H -2.2508951971 -0.5955950503 0.0712504007
