15
0
O 0.933767506 -2.6893386526 1.579934952
C 1.1910251581 -1.6885228367 1.0540023512
C -0.8064243364 -0.5240147117 -0.7178457243
C -1.3439992077 0.6147772033 0.173150042
C -0.0536964216 1.4037577006 -0.1266274339
C 0.6125132767 0.0811586545 -0.5921899049
C 1.478617653 -0.5575463733 0.4621505912
H -1.1733120653 -0.4449592386 -1.741626526
H -0.9557322266 -1.5519649686 -0.3824456637
H -2.2906216683 1.0708138383 -0.1146740428
H -1.4041756149 0.3167529231 1.2201558074
H -0.1844116464 2.0956078272 -0.9603141913
H 0.4222783776 1.930506175 0.7004379206
H 1.1749991285 0.1497382485 -1.525408331
H 2.4015390873 -0.085566789 0.7768961536
