13
0
C -1.4577543935 1.1420331734 -0.2018518926
O -1.2901063872 -1.3961423266 1.1726900449
C -0.31823725 -0.9030417444 0.6362930352
N -0.2745566724 0.3979628292 0.1427165109
N 0.8815446247 0.5802822967 -0.6085046633
C 1.6660399455 -0.5296214633 -0.3757715982
C 0.9970351173 -1.4584743197 0.3236039996
H -1.7097635765 1.0218766932 -1.2588020578
H -2.2634786087 0.7400037573 0.4096232115
H -1.3312012792 2.2021902108 0.0247161605
H 1.3142889694 1.4839068311 -0.4685364768
H 2.6732295415 -0.5434843707 -0.7649471945
H 1.3169539692 -2.4517995675 0.5868159207
