16
0
C -1.2486929786 2.2352545642 -0.1310384145
C -0.4693396174 1.0437388775 0.2869495114
C -0.4514536902 0.4986281377 1.631882741
C 0.5831390547 -2.0668977893 -0.6108320172
C 0.3823149213 -0.5632943896 1.4569004792
C 0.917704135 -0.7406107029 0.0611278749
N 0.2726153716 0.3851783886 -0.5853993469
H -2.3009791637 2.0431056378 0.0852344173
H -1.1276431456 2.496247871 -1.1834883351
H -0.9563591631 3.0762590234 0.4988424854
H 0.9458433828 -2.1015003746 -1.6406497573
H -0.4957599265 -2.2291846613 -0.609041753
H 1.0530888139 -2.8852867126 -0.0648851461
H 0.6827939135 -1.2733899055 2.2233620306
H 2.0024723132 -0.5759751241 0.0442704366
H 0.3765207791 0.6159731597 -1.5599292063
