14
0
O 2.8996288475 -0.5605700592 -0.1061911875
C 1.6310775373 -0.1348284509 -0.2936423527
C 0.8301949891 0.4039711716 0.6177026913
C -0.5746876566 0.8325852408 0.304820175
C -1.5854994216 -0.0979976258 0.9297221444
O -2.4944580698 -0.6123567583 0.3393861113
H 3.1545157035 -0.430292388 0.8112901778
H -1.412764929 -1.1316084749 -2.8425108797
H 1.3188893626 -0.281292279 -1.3220820495
H 1.1851500568 0.5291805898 1.638308939
H -0.7561938481 0.8690078186 -0.7699904403
H -0.7625712579 1.8349479537 0.7082722548
H -1.4337171539 -0.3001135782 2.0120165686
H -1.7717841599 -1.1030991604 -2.1886671526
