16
0
C 1.5781785675 -0.6519933531 0.6723645206
C 1.1450289756 0.5854035732 0.0077266264
C 0.9679573223 1.3476170618 -1.0083843816
C -1.7422753955 -1.7858547563 -0.5831129391
C 0.4707629074 1.9017741338 0.296174601
C -0.9529785822 1.9229511223 0.5823068047
N -2.0781326665 1.9271238867 0.8147935006
H 0.7231746719 -1.1226186613 1.1613141655
H 2.0062313832 -1.3522681448 -0.0437546059
H 2.3184667968 -0.4286243851 1.4427163113
H -0.914783706 -1.5592710785 -1.2549152372
H 1.0426281528 1.5630832752 -2.0587174659
H -2.593704707 -2.13286739 -1.1664208157
H -1.4447778212 -2.5667954723 0.1160656457
H -2.0241727361 -0.8873411301 -0.0356757096
H 1.0136858369 2.6984413184 0.8006359791
