11
0
C -1.8308532089 0.2230628686 0.3329870994
N -0.4393300861 0.0008331585 -0.0129052939
C 0.5450743065 0.2246118941 0.8240116341
C 1.8720809626 -0.0325511928 0.3702733055
N 2.0057860173 -0.4747768696 -0.8659193502
N 1.8414513403 -0.8288645057 -1.9177592779
H -2.3947502774 -0.7111768894 0.283128297
H -1.8642222818 0.6113572687 1.3475346238
H -2.2858930114 0.9458492622 -0.3479013194
H -0.300576374 -0.3481153404 -0.964225706
H 2.7722156133 0.1014923459 0.9446749876
