15
0
C 2.7333044966 0.1798825784 -0.3134526797
O 1.3506024474 0.4078485657 -0.2695531873
C 0.6627378536 -0.6190067535 0.3663888629
C -0.8151820125 -0.3806335984 0.3967409184
C -2.8127467955 0.7180547528 0.0045880602
N -1.3761252336 0.625864437 -0.0981542192
H 2.9746934984 -0.7349659964 -0.8715885246
H 3.1619439817 0.0950028404 0.6944483681
H 3.1865581256 1.0315967849 -0.8180958054
H 1.0086685878 -0.7463987989 1.4069597638
H 0.8390394823 -1.5873013278 -0.1336881277
H -1.3831386359 -1.1806424107 0.8996933209
H -3.2732749775 -0.1367488954 0.5202558636
H -3.2381074727 0.796305217 -0.9979515634
H -3.0752313458 1.6353556047 0.5353629494
