8
0
N -0.0878052001 0.954121734 -0.2519403275
C 2.1889313743 -1.2963393924 0.2787281803
N 2.9900293711 -2.0941629618 0.4566686712
N -2.425024302 0.3714263386 0.0363093721
C -1.2816382159 0.701554821 -0.1809470432
H 0.1864689441 1.9000794891 -0.4775012663
H 1.4343212523 -0.5446708625 0.1083438571
H -3.0127902238 0.0155028341 -0.7018414437
