13
0
O 1.4537065633 2.7736642475 0.1814217541
C 0.4744643292 2.1423969621 0.1770893124
N 1.4976344658 -0.6313457546 0.4936453776
C 0.7498490993 -1.1312227028 -0.391853429
C -0.7023523089 -0.7693714949 -0.4928013454
C -1.1407054321 0.3283132991 0.4648536615
N -0.6033116172 1.6184888276 0.1087291586
H 2.4487936215 -0.9834330351 0.4268002579
H -1.2906708172 -1.6739643682 -0.3007916331
H 1.1072659948 -1.8575972991 -1.1317752665
H -0.9248043116 -0.4813520265 -1.5251125709
H -2.2271485067 0.4112059549 0.4416864266
H -0.8425060801 0.0727323901 1.4835422963
