14
0
C -2.1052987799 0.1714782621 -0.2261906522
C -0.8189173164 -0.4152769136 0.3565534417
C -0.218205794 -1.4633058474 -0.5468620677
O 1.0454102924 -1.129402147 -0.6810329142
C 1.3679799832 0.0626501532 0.006604725
N 2.6956201549 0.3805340055 -0.0916375673
C 0.3017089947 0.5443969098 0.6289790061
H -2.5529524673 0.8789001564 0.4730696416
H -2.8258743103 -0.6199138992 -0.4322491205
H -1.9004692738 0.7000077149 -1.1585114826
H -1.0861661 -0.9901920481 1.2581730435
H 3.1389105932 0.0571891617 -0.9360655983
H 2.9302408746 1.3273571575 0.1506516227
H 0.255526149 1.441835334 1.2239399223
