14
0
C 1.9224116571 0.1047680269 0.2905667045
N 0.6239644103 -0.5318062146 0.4200154931
C -0.4084178939 -0.0023088289 -0.4142995969
C -1.7102905502 -0.7623410744 -0.2340376388
C -0.7789116629 2.5495996721 0.0393079332
N -0.6474899766 1.4140884708 -0.1805303458
H 2.2763972755 -0.0028914349 -0.7370177488
H 2.6339012083 -0.403557504 0.9406040981
H 1.9184149852 1.1733344146 0.5408452761
H 0.3200909984 -0.5528246433 1.3844756412
H -0.0740891022 -0.0719743614 -1.4528759366
H -2.4839869019 -0.3605848158 -0.8868879879
H -1.5461504675 -1.8128053461 -0.4699362722
H -2.0571279795 -0.6810043607 0.7978753812
