19
0
C 2.165867835 -0.0038893965 -0.9643456954
C 1.0885067498 0.1606803053 0.0995674297
C -0.3377327409 -0.1038651495 -0.3897492455
C -0.5335168657 -1.5354098037 -0.8785577954
C -1.333473576 0.2307490797 0.7203177162
C -1.3890105422 1.6845195245 1.0463296649
O -1.7372295764 1.8094122826 2.304889505
H 1.9517172353 0.6190351769 -1.8366441154
H 2.2502643666 -1.0373848845 -1.3054079492
H 3.1430348244 0.2927281498 -0.579185994
H 1.127712212 1.1818924591 0.4934198626
H 1.3005611213 -0.5035668152 0.9465704863
H 0.1231062306 -1.7700673545 -1.7172908775
H -0.3223295823 -2.2529224918 -0.0797367455
H -1.5612319666 -1.7008362127 -1.209672335
H -1.1790073848 -0.3971637599 1.6093520751
H -2.356810578 0.0270733841 0.3666458486
H -0.5387609546 0.5831463055 -1.219829597
H -1.8157958074 2.748594201 2.5023857615
