13
0
O -1.4335561827 -2.1489192889 0.7607072011
C -0.9423664477 -0.9397414296 0.7762678578
C -0.30104049 1.7512802824 -0.1598924445
N 0.401496925 0.6074091139 -0.724642499
C 1.3037796612 -0.0923834785 0.1214249686
C 0.009048153 -0.733953723 -0.3156501649
H -1.1030865184 -2.6988480587 0.0215609871
H -1.2598437292 1.8630229317 -0.6666830232
H -0.484478141 1.6621003479 0.9141487534
H 0.3019178451 2.6385617605 -0.3573018282
H 1.3649821682 0.201618598 1.165945636
H 2.2191008548 -0.4626560778 -0.3255477445
H 0.0577569014 -1.4761829776 -1.1229956997
