10
0
N 2.5759225433 -0.5413763804 0.5219188351
C 1.4590993897 -0.773006895 0.147302678
N -0.5444764965 1.22451068 -0.0600369148
N -1.6263456024 2.088181885 -0.1128673453
O -2.4954171958 1.8422676268 0.6657694485
C -0.8072463363 -0.0162774528 -0.1996237559
C 0.1994566362 -1.0490253217 -0.1473964617
H 3.2996119682 -0.2794772684 -0.1375068539
H -1.8333448291 -0.3391766896 -0.3899445518
H -0.0624280775 -2.0757771838 -0.3610150783
