12
0
N 0.9292087582 0.2528895836 -2.3734006323
C 0.4723462759 0.0148303806 -1.2293857005
C 1.0343655954 -0.7637427172 -0.0558725633
N -0.3081442509 -0.7360548965 0.6119497297
C -0.8300658552 0.1279104383 -0.5099024501
C -0.5895005001 0.666050659 0.8485277709
H 1.3085898005 -1.7806074279 -0.3343025172
H 1.8356193182 -0.3098155544 0.5297504635
H -1.8210174338 0.0157283549 -0.9323604592
H 0.2286915581 0.6974561041 -2.9645763161
H 0.23506732 1.3523449628 1.0166645993
H -1.4639055863 0.8380091127 1.4639160752
