13
0
C 2.2335004977 0.3419710819 -0.1826126059
C 0.756855791 0.3159144662 0.0189299873
O 0.401954578 0.7637367016 1.2387438565
N -0.0432584765 -0.0723216301 -0.8840847118
C -2.0710472921 -0.8567795431 0.205333995
C -1.420280038 -0.0795506939 -0.6587496769
H 2.6045767012 1.3602153634 -0.0551964088
H 2.7215906304 -0.2814621605 0.5679291627
H 2.4742544294 -0.0174420956 -1.1787999974
H -1.5493950074 -1.5724554916 0.8310342529
H -3.1511525415 -0.8325384234 0.2582486797
H -0.5599606279 0.687171883 1.3230349084
H -1.9783636443 0.585266542 -1.3139334417
