17
0
C 2.0271460678 -0.2499663676 0.3776430762
C 0.6947145445 -0.7226924152 0.9381100636
C -0.2826477277 -1.2632301844 -0.0073094812
C -0.5861744115 1.8790137628 -1.5582372842
C -1.653474822 -1.2338206579 0.5214480753
H 1.9022679361 0.6916175209 -0.1595798957
H 2.7598216645 -0.0868209617 1.1702324868
H 2.4227617709 -0.9830756831 -0.3254506311
H 0.2841715713 -0.0311175014 1.692812804
H 0.8429775909 -1.6772112165 1.4908939998
H -0.3361246138 0.8405345017 -1.777833641
H -1.6335250447 2.0611095456 -1.7967088066
H -0.4146745436 2.0824958031 -0.5010578598
H 0.0403997539 2.537856798 -2.1575103755
H -1.7782519283 -1.0916297173 1.6053724454
H -2.0318707245 -0.3205291947 0.0294294688
H -2.2840250838 -2.0412340323 0.1483095551
