13
0
O 1.7927947175 1.8546808623 -0.5590711453
C 1.6776429184 0.7664802205 -0.0725220089
C 0.6512355682 -0.2555463923 -0.5389716961
O 0.5230255353 -1.2599330201 0.475678022
C -0.6708965171 -1.0229493314 1.0973802364
C -1.4383088815 -0.1230016375 0.5037351246
C -0.7445201241 0.3527116465 -0.7467496704
H 2.3335329658 0.4165803114 0.7498835999
H 1.0541559574 -0.7318420893 -1.4364949623
H -0.8431129033 -1.6146242391 1.9844515306
H -2.4198121886 0.1809134307 0.8302827761
H -0.6764907502 1.4375580456 -0.8405238269
H -1.2297492977 -0.0293598075 -1.6485129798
