13
0
C 1.4234631154 0.2341418291 0.2515847199
C 0.1017147181 -0.414076088 0.4696839002
O 0.1232637053 -1.2023303039 1.5597942766
C -1.0588789459 -0.2923862731 -0.2731480612
C -1.3716705797 1.1999495946 -0.6468404859
N -0.9642687829 0.2908390269 -1.6203442805
H 1.4143922651 0.9259395487 -0.58730158
H 2.1792617283 -0.5352020676 0.0710702905
H 1.7238303104 0.7768571967 1.1505586315
H -1.8949114097 -0.953639217 -0.0760875326
H -0.6095288776 1.9453938664 -0.3675168323
H -0.7342478134 -1.6209392105 1.682831081
H -0.0020524333 0.3502460975 -1.9657571272
