14
0
C -0.2952396078 -2.1187969676 0.1629894686
C 0.43484717 1.1953874155 0.0001346916
C 1.0248364292 2.3575510152 -0.5654395672
O 0.3283995413 1.3814198147 -1.3898608876
C -0.0645351379 0.319535689 0.8688313343
O -0.0786208865 0.0707411262 2.0704248826
N -0.8789587964 -0.7777226983 -0.0077439458
H 0.6711873771 -2.1350185037 -0.3360649013
H -0.1547736239 -2.2737523409 1.2309848246
H -0.9486145529 -2.8833460235 -0.2553030655
H 0.521763119 3.3184269046 -0.4972662317
H 2.0968909893 2.4023492103 -0.7377674994
H -1.8242058055 -0.7512639245 0.3646452027
H -0.8962502149 -0.481681717 -0.9812963058
