16
0
C 1.9155201682 0.1765007422 -0.6854169347
C 0.5798251689 0.7410244998 -0.2144487869
C -0.2337363284 -1.3057327431 0.9779529427
O -0.8724811641 -1.4801923885 1.9801352357
C -0.5612915402 -0.2852368937 -0.0853503557
C -1.9012079801 0.3850428232 0.1734290557
H 2.636055835 0.979516075 -0.8475894355
H 2.3564147991 -0.5106056824 0.0386337073
H 1.8052343919 -0.3620085362 -1.6299988224
H 0.247998546 1.5073599422 -0.9201819064
H 0.7039736038 1.2495723398 0.7471796445
H 0.6711056364 -1.9197130283 0.787954929
H -0.6015110714 -0.8472828873 -1.0292380049
H -1.8730544536 0.9597295845 1.1006946147
H -2.151933233 1.0637186642 -0.6434730166
H -2.7000963786 -0.3497245116 0.2734371337
