11
0
N -2.7698066359 1.2584358424 0.5161356508
C -1.5184738968 1.2244205304 0.5116520063
O -0.8833447604 0.0728273089 0.2132904526
C 1.9316225884 -1.9962144462 -0.3420117253
C 1.1922586502 -0.9659459377 -0.0641497165
C 0.4902810462 0.091389607 0.2208912793
H -3.0955544228 2.1872785839 0.7580626198
H -0.8415800756 2.0575361055 0.7315226234
H 2.2493078249 -2.2026937161 -1.3586124114
H 2.2443202153 -2.6896513163 0.4314551417
H 0.9614014666 1.0350034382 0.4790850793
