11
0
C 2.7864927678 0.0530679865 0.2596666276
C 1.5949877927 -0.0256096893 0.1680150977
C 0.1829889524 -0.1391456277 0.0501945425
C -0.6241956705 -1.2293146249 -0.1567820759
C -1.9942481039 -0.8121578005 -0.2384143933
N -1.8856635615 0.5064256271 -0.1003471506
N -0.6105461202 0.9594015346 0.1498648929
H 3.8460370897 0.1156437384 0.3436991395
H -0.2723225762 -2.2455745232 -0.2288666183
H -2.641214925 1.1630754475 -0.0070088822
H -0.3315456454 1.9000829313 -0.0761911797
