14
0
O 1.1058991035 -1.2056012957 1.2077109869
C 0.9544832134 -1.0230225659 -0.1848304723
C -0.4836484475 -0.7538300751 -0.5938650142
C -1.0973634382 0.4547621343 0.1047189334
C -0.2019430559 1.6616083685 0.0649144119
C 1.0315171071 1.9171404199 -0.2098296836
H 1.2631197558 -0.3506651848 1.613388561
H 1.311488617 -1.9348449633 -0.6682032282
H -0.511358041 -0.6104516616 -1.678102809
H -1.09349492 -1.6307704266 -0.3632633996
H -2.0596007321 0.7070173337 -0.3440955049
H -1.2967880657 0.2202580088 1.1536894079
H -0.5822932195 2.6525364895 0.3676146627
H 1.6051171231 -0.2056915816 -0.5400798521
