14
0
O 1.4834949356 -1.4946046555 0.9672864845
C 0.9239734748 -0.8596422962 -0.249724601
C -0.0950501084 -1.7717931784 0.3092341793
C -1.668611726 0.9665712877 -0.2445299208
C -0.2374774913 1.3838490689 -0.1581981891
C 0.8529664915 0.621743917 -0.1624651586
H 1.2233112662 -0.9464731914 1.7172179736
H 1.5687390248 -1.1866573831 -1.0682059044
H -1.7878597548 -0.1107117783 -0.157309982
H 0.0926794607 -2.7566768295 -0.141163608
H -2.0963820175 1.3118143755 -1.1901688213
H -2.2432723213 1.4439205407 0.5528433976
H -0.070310852 2.4581357594 -0.1122769106
H 1.8220466178 1.1158063632 -0.1412299394
