12
0
N 2.3927141179 0.8057151363 0.1814276651
C 1.2647199403 0.7681566101 -0.6406586201
C 0.0323877854 0.5657378818 -0.264816511
C -1.2005979276 0.2955367131 0.0787286935
C -1.7384802262 -1.0729402678 0.2271328792
N -1.0211365227 -2.1111684066 0.1281096571
H 3.0786219702 1.4885494952 -0.0959849778
H 2.1858123424 0.863682254 1.1655933578
H 1.4689780193 0.8599997717 -1.7033736239
H -1.8997987145 1.1068844501 0.2676280732
H -2.8149755303 -1.1172767109 0.4323591278
H -1.5834542541 -2.9485179271 0.2558752792
