15
0
C -1.7964412165 0.655935378 -0.3885174164
C -1.5842227562 1.3261965623 0.9303056757
O -0.683294691 1.08497159 1.6912964571
C 1.6745759092 -1.1900751362 -0.3359989486
C 1.7854867674 -0.0946057226 -1.0898683286
N 1.2506351981 -1.2457838356 0.9720793316
H -2.7613553719 0.1412133062 -0.3711542638
H -1.8604572795 1.4146866889 -1.1726334863
H -0.995813671 -0.0461872134 -0.6161560056
H -2.3335653019 2.097769237 1.2007294008
H 0.74048267 -0.4487396981 1.327738644
H 1.9789962633 -2.1506510599 -0.7418608024
H 1.5183747928 0.8865054962 -0.7139263057
H 2.1880969109 -0.1618866224 -2.0899073276
H 0.9116877764 -2.1311279704 1.3003043757
