15
0
C -1.9578647936 -0.2512391437 -0.704772453
C -0.8608487279 -0.8680846966 -0.2610726537
C 0.5475154085 1.0865866924 -0.1441872397
C -0.0491137886 2.0549134359 0.7395539496
N 1.1561233696 1.8727085735 0.99544514
N 0.3533293527 -0.3012479084 0.0689246492
C 1.5475521174 -1.1175986411 0.0134642765
H -2.8602104784 -0.8241400701 -0.860429364
H -1.9926111043 0.8091802997 -0.9151106169
H -0.8962569818 2.6215978273 1.0978597458
H -0.8828441534 -1.9412978174 -0.0952517854
H 0.8742923276 1.3807945113 -1.1421295429
H 1.9685363157 -1.1811797734 -0.998770305
H 1.3139210837 -2.1274600664 0.3512340201
H 2.3044360527 -0.7005032229 0.6783861793
