14
0
C -1.9900157026 0.3676713082 0.5352403309
C -0.583093879 0.2726761537 0.0863637503
C 0.5455509445 -0.4675679323 0.7202931918
C 1.6750289639 -0.1505924866 -0.2635769213
C 0.8903776268 -0.079209299 -1.5368528917
O -0.3306066437 0.3531584387 -1.1863118052
H -2.049039808 0.7983838985 1.535861385
H -2.4661770891 -0.6225264172 0.5761030476
H -2.5691151514 0.9920044626 -0.1448459883
H 0.7429449545 -0.2095207781 1.7585086131
H 0.3066317637 -1.5491795576 0.6641900976
H 2.0978124607 0.8443588355 -0.0219367501
H 2.4822450429 -0.8793147183 -0.2597328678
H 1.2315875166 0.334808092 -2.4750701922
