11
0
N 2.7452211676 0.2193387106 -0.0795219392
C 1.3988964646 0.3040848298 -0.0530994914
C 0.200955331 0.3368321448 -0.0157524703
C -1.2513204037 0.3339099292 0.0462403158
C -1.90914107 -1.0291153536 0.1278311691
O -1.3432797845 -2.0816934358 0.1270791742
H 3.1586716205 0.2391486289 -0.9973169774
H 3.2265060911 0.8104667726 0.5779577667
H -1.600339006 0.9051126578 0.9147049772
H -1.6926701834 0.8423791542 -0.8198813572
H -3.0181242273 -0.9787430386 0.1858278325
