13
0
C -1.169726016 0.0025345718 -1.5816434828
O -1.5820395083 -0.6667124637 1.0613732489
C -0.5068433057 -0.2194834226 0.738777888
N -0.1728491817 0.1129904005 -0.5353683603
N 0.4924048383 -0.0241372358 1.70696577
C 1.8483382804 0.0741268197 1.5340669399
O 2.6288136098 0.1590088454 2.4436460968
H -1.9492980242 0.762299704 -1.4874459377
H -1.6414029048 -0.9764239293 -1.5294429856
H -0.6765871417 0.1060265624 -2.546757726
H 0.5818784782 0.7581089163 -0.680498521
H 0.1698150009 -0.1483677787 2.6556363729
H 2.1677808747 0.0552130098 0.4790616968
