19
0
C -1.9030850777 -1.3924363544 0.7647820744
C -1.4820606066 -0.4740075594 -0.3374252985
C 0.0275029554 1.1794841518 -1.4234077155
C 1.1694228795 1.7981203729 -1.1352389459
C 1.7004444577 1.4111681979 0.2173030489
C 0.6543017911 0.410240684 0.7566525944
C -0.391992745 0.2913089797 -0.3376119884
H -2.9101281768 -1.1502081683 1.1153378479
H -1.9301708466 -2.4305445241 0.4200775185
H -1.2292580836 -1.3429764024 1.6205029485
H -2.1249022112 -0.4420470275 -1.2136756654
H -0.5384842754 1.2954383296 -2.3394211092
H 0.6106290715 -2.3237631017 -1.0923479437
H 1.6783903908 2.4999699625 -1.7842491377
H 2.6947095697 0.9627111969 0.137727064
H 1.8084522286 2.2847419644 0.8661504021
H 0.2060297538 0.7648006522 1.6869279834
H 1.1042364898 -0.5610969257 0.9729114999
H 0.9988484348 -2.9615224287 -1.1005301778
