9
0
O -1.930441013 -0.7632364499 -0.8413545004
C -0.8431286356 -0.4884990445 -0.4167067527
N 0.2642961647 -1.3454279712 -0.3554388707
N 1.1861459882 -0.5924194303 0.1732071649
N 1.0175962437 0.6114882333 0.5131584464
C -0.3686667366 0.842274429 0.1630973672
H -0.9405366462 1.1276164896 1.0485320911
H 2.1019476441 -1.0070192832 0.3197507733
H -0.4478720092 1.6548860271 -0.561811719
