14
0
O -0.6231937417 -0.7404544072 1.0400095826
C -0.6412377194 0.1195455886 -0.0343928071
C -0.2171507494 1.47866391 0.2503886813
O 0.63803875 0.5724474819 -0.461519978
C 2.9953861023 -0.8584886682 0.9508096983
N 3.8307475757 -1.458346688 1.4534488193
C -1.5976129449 -0.2367675285 -1.1339496025
H -0.6103834206 -1.647820488 0.7238265219
H -2.6157435292 -0.2760422436 -0.7463826312
H -0.5944473789 2.3087841034 -0.3383528015
H 0.1047966302 1.7133507785 1.2598620291
H 2.2005054035 -0.3026546199 0.4755181561
H -1.5445617481 0.494555602 -1.9382869307
H -1.3431252296 -1.2159908209 -1.5478527374
