13
0
O -0.4255898072 0.8280290049 1.1402703311
C -1.1528891463 0.0174589345 0.2341076041
C -0.3049613361 -1.1166156609 -0.2418577698
C 0.9203592675 -1.3852140483 0.1784020598
O 1.1905685389 1.9652275312 -1.0197782506
H -1.0099064274 1.500719004 1.4926647271
H -1.4779811093 0.6068199474 -0.6331670604
H -2.053164338 -0.3874176718 0.7141206836
H 1.5079036763 1.1545047825 -1.4211453056
H -0.7748376234 -1.7448290643 -0.9935399564
H 1.4044084648 -0.7779562268 0.9333404577
H 1.4700199311 -2.230384722 -0.216126145
H 0.8185039091 1.6789361896 -0.1755673757
