14
0
O 1.2159587546 -0.4914291628 -1.3960859196
C 2.0676958306 0.3220383888 -1.167993977
C -0.9259680558 0.601565703 0.3102990516
O -0.2473689196 1.5167643466 0.6693231008
C -1.3849952427 -0.7638233397 0.5543468543
C -1.9023047516 0.0893827618 -0.6474104821
H 1.9725095306 -0.3955745552 2.2743549959
H 1.8949902512 1.1588136742 -0.4696056791
H 3.0607874213 0.2635604794 -1.6508048469
H 1.4659483337 0.118076632 2.0821452183
H -2.0695823065 -0.941185429 1.3756174138
H -0.7067826215 -1.5760510832 0.3252046557
H -1.5519618056 -0.1871849376 -1.6338760459
H -2.9188834187 0.4621775217 -0.5984813399
