12
0
N 2.8153870226 1.0440310823 -0.4246412866
C 1.9686333856 0.384580919 -0.0194549966
C 0.8444541058 -0.4432344564 0.4784237628
O 0.4245805229 -0.0187628312 1.7442611476
C -1.7002993369 -0.4503094506 -0.1357499919
C -1.266847411 0.6511833017 -0.6454372773
C -0.2738853186 -0.4596568079 -0.569241317
H 1.2236475317 -1.4593574556 0.6098075956
H -2.5046657921 -1.0283866077 0.2832304655
H -1.4487825315 1.6621428341 -0.96588721
H -0.0958279941 0.7844790207 1.6453313072
H 0.0221388157 -0.9815495484 -1.4792981995
