14
0
C -0.4720067047 1.5900757831 0.3189105231
N -0.4391767399 0.229115706 -0.3740117622
C -1.0033074617 -0.9429749675 0.3497611202
C 0.930103161 -0.0360211081 -0.8694036318
C 1.847442391 -0.3477060849 0.2247730242
N 2.5831808968 -0.6363670892 1.0541882084
H -1.5282122306 1.7142072071 0.5923114071
H -0.9969879364 0.374798469 -1.2101557972
H 0.077058865 1.4271325993 1.2568175627
H -0.4359847214 -1.0757875383 1.2687357767
H -0.9581059813 -1.8508472942 -0.2583387217
H -2.0349056915 -0.708787704 0.5981188451
H 1.2579082746 0.879287109 -1.3612294362
H 0.9294538792 -0.877746087 -1.5660411181
