8
0
O -1.1970722043 -0.8035132444 0.3075754095
C -0.1051742754 -0.2490166025 -0.3333470455
C -0.2130233333 1.2258070078 -0.4482963659
N -0.3345779239 2.3611347028 -0.5361363208
C 2.1226270537 -0.8792865852 0.8336906801
N 1.1289514891 -0.5751686998 0.3039260073
H -1.2962615127 -0.4131284955 1.1817914323
H -0.0873892933 -0.671767083 -1.3393117968
