13
0
N 2.505380095 -1.6132413852 0.7970887696
C 2.0039204055 -1.0537564595 -0.0743425658
C 1.3910084685 -0.3661579601 -1.1598902543
C 0.357221972 0.4749540179 -1.0080553119
C -0.6502241432 -0.0869712844 1.1926948322
C -1.6468577118 0.7087987928 0.423660397
N -0.231247354 0.8433508949 0.1741717033
H 1.8176562368 -0.5184763453 -2.1409526907
H -0.0353496143 0.9848009683 -1.8819775213
H -0.5687426011 -1.1439556105 0.9647622384
H -0.4034298098 0.1870290225 2.2104392146
H -2.238882182 0.178543835 -0.3153600288
H -2.1254357618 1.5663825135 0.8804612179
