15
0
C -0.1849841539 -1.4493397313 0.162489932
C -0.4492040748 0.0243737783 0.4650513817
C 0.3081575234 0.9671254813 -0.4946409187
C 1.7551146745 0.8172311686 -0.3837607423
C 2.9404811372 0.6880912021 -0.2790885595
C -3.0648880542 0.7331635728 0.165069254
C -1.883203482 0.361412685 0.3572216734
H -0.5002955306 -1.6954639326 -0.8529205637
H 0.8794437855 -1.6637601292 0.2599322769
H -0.7298854388 -2.0935272841 0.8535618911
H -0.118035164 0.2495850041 1.4826196316
H -0.0032940718 0.7615639102 -1.5223430634
H 0.0364955765 2.0030394346 -0.2807087165
H 3.9959687218 0.5800555738 -0.1924640536
H -2.8281594486 -0.2169667335 0.9720455771
