16
0
C 1.1674538592 -1.786626741 0.432896695
C 0.4114869484 -0.5883128443 0.9113055978
O 0.8436072798 2.758569943 -0.5959250802
C -0.6048785414 0.012103331 0.3045563753
C -1.2420891596 -0.3395642209 -0.9995691685
O -1.1263061391 1.144650543 0.9001519802
H 0.7946939383 -2.170503652 -0.5162629315
H 1.1098732773 -2.5986256644 1.1622920159
H 2.2276330094 -1.5548018988 0.3000446239
H 0.7240952297 -0.1589517378 1.8588555175
H 0.2352456646 2.4429963609 0.0824422995
H 1.5268809862 2.0872868433 -0.6265527393
H -0.8331624475 -1.2530954576 -1.4229125562
H -2.3196624409 -0.484440219 -0.8727345003
H -1.0899341049 0.4717407746 -1.7167605863
H -1.9647393595 1.3655616402 0.4897574569
