17
0
C -2.0760786986 -0.3903516499 0.5099594107
C -0.9157041728 0.5679729914 0.4604040028
O -0.7514812678 1.3343016605 1.6039443339
C 0.44223876 -0.8278192666 -1.3916585549
C 1.9026540542 -0.380154788 -1.1950806834
C 1.4898873522 0.5240141743 -0.0550356288
O 0.267263829 -0.2189839106 0.2485078455
H -3.0018510888 0.1664783389 0.6507434988
H -2.127539319 -0.9442188674 -0.4267242949
H -1.9504336436 -1.0970776733 1.3343193786
H -0.9959965098 1.2596464894 -0.3812820546
H -0.8600676656 0.7714265907 2.3755476219
H 0.3510069292 -1.8974215632 -1.1546094306
H 2.6183256676 -1.1428678128 -0.8706818737
H 2.3168271552 0.1504398877 -2.0526514757
H 1.2179032457 1.5302469484 -0.3749315399
H 2.1205923728 0.5707084504 0.8309824443
