13
0
C -1.4517170871 0.6425879993 -0.1228764577
C -1.2834984793 -0.8432735087 -0.0505077052
C -0.0378523786 1.1054503446 -0.0312641735
N 0.7923343187 0.067031 0.0717316121
C 2.1169957076 -0.0177496333 0.1726141798
C 0.001585972 -1.1316242289 0.0596225841
H -2.0901524681 1.0037519034 0.6942322882
H -1.9522141066 0.9349918957 -1.0555766796
H -2.0868582449 -1.5635692944 -0.0840430422
H 0.3367174516 2.1143170015 -0.0477601092
H 2.6987808181 0.8881587931 0.1791501289
H 2.5615377894 -0.9942116316 0.2444715341
H 0.5122187069 -2.0787016404 0.1349308402
