19
0
C 2.0294811465 1.2525628112 -0.1853372664
C 1.5669893255 -0.1398373338 -0.5368974147
O 0.6840129925 -0.5907868097 0.4819386686
C 0.2675857788 -1.8708858124 0.3628794769
C -0.7968524772 -2.3393978177 0.9955638316
C -2.1812241804 0.806285084 -0.9178970791
C -1.8824516107 1.6472423528 0.0581082639
H 2.7249269246 1.6169710693 -0.9430115196
H 1.1803544759 1.9349306814 -0.1390544758
H 2.5351566554 1.2564912736 0.780971082
H 2.4173314308 -0.8288641259 -0.6114981626
H 1.0414044043 -0.1416348875 -1.4989066019
H 0.8829353002 -2.5020368079 -0.2767997376
H -1.0603792892 -3.3823097735 0.8979449202
H -1.4067189263 -1.7021733851 1.622869921
H -1.7594666124 -0.1925571843 -0.9465080298
H -2.8645990517 1.0768868452 -1.7150973985
H -1.1996961269 1.3633313819 0.8507960596
H -2.3086671599 2.6434864382 0.1018734624
