19
0
C 2.3743835184 -0.8281543883 -0.3758789918
C 3.0969554253 0.2466192129 0.3756349912
O 2.5947362896 1.2651020951 0.7659841137
C -1.062667859 1.4576748685 0.3044888208
C -1.3541813629 -0.0205707421 0.3028031576
C -1.4233825771 -0.7761675905 -0.992546309
C -2.6721836572 -0.5284223901 -0.1946547461
H 2.8667756932 -0.9893634572 -1.3385798818
H 2.4472970894 -1.7680605711 0.1779033332
H 1.3287823027 -0.5658970862 -0.5277922562
H -1.4967028212 1.9363902759 -0.5770272792
H 4.1733602922 0.0515509942 0.5677498025
H -1.4887740178 1.9390841979 1.1876425109
H 0.0122902751 1.65055169 0.3030683707
H -0.9288464362 -0.565224835 1.1396059282
H -1.2911195085 -0.2135496921 -1.9089521717
H -1.0364194676 -1.7867005676 -1.0293712454
H -3.3773250325 0.201056058 -0.5739901693
H -3.1291181458 -1.3706870724 0.3081390215
