11
0
N 0.9692881273 0.4084747575 1.0221808421
C 0.2506187663 1.3190786143 0.1474218873
C 0.8581470079 -0.1503314436 -0.292775855
C -0.4898055422 -0.7292201656 -0.5358115858
O -1.0401402387 -1.3167952306 0.6183678239
C -0.6111260648 0.7627847774 -0.814660398
H 0.3337834338 -0.1148597221 1.6194845969
H 0.6575751289 2.3212450006 0.0600588127
H 1.7196121662 -0.1862799431 -0.9418549566
H -0.6248601247 -1.3539513621 -1.4143407778
H -1.9722976598 -1.0940112828 0.6466836102
