15
0
C -2.4196357194 -0.6375408229 -0.7118990626
C -1.7552599078 0.1167142097 0.4277648916
O -0.7816711925 -0.6526934452 1.0951449634
C 1.7340331773 -0.5638825804 -0.6472108633
N 2.3976208837 0.2185901325 0.0151638355
C 2.9582480795 1.0333335409 0.7988702436
H -1.6865193418 -0.8985669888 -1.4791565733
H -2.8685489167 -1.561310352 -0.3429451206
H -3.2002714846 -0.0327053457 -1.1801581558
H -1.3213890959 1.0537120912 0.050021905
H -2.4990063349 0.3896367953 1.1804442866
H 2.2239720293 -0.972002293 -1.534734929
H 3.5207455702 0.6568331284 1.6429922622
H -0.0426946388 -0.7933012176 0.4818809885
H 2.8608858926 2.0959291476 0.6191513283
