17
0
C -2.0771635153 0.6063579918 1.6007580576
C -2.5157506961 1.281438117 0.5506083712
C -0.0670214888 -1.7068220089 -0.1550417328
C 1.3714543302 -1.5769201431 -0.3850991141
C 1.9055615129 -0.3320807287 -1.1026770837
C 1.3131209436 0.4676011528 0.0515461458
O 0.9175589651 -0.7534324916 0.7880388233
H -1.8194578032 -0.4453649527 1.5352623893
H -1.9576954202 1.0842741861 2.5671095391
H -2.7733299085 2.3331852555 0.6123182049
H -2.6459056803 0.8027900791 -0.414171195
H -0.584214885 -0.9506470797 -0.7670060496
H 2.0467328545 -2.392018319 -0.1382419851
H 2.9919050178 -0.2727301823 -1.1503680825
H 1.4828189641 -0.1633832786 -2.0909789579
H 2.0274465054 1.0162480601 0.6626298341
H 0.4288263039 1.0723713424 -0.1407361642
