19
0
C 2.7965188169 0.5219040593 -0.3345655943
C 1.8209798183 -0.64444455 -0.4408252939
C 0.5406167031 -0.4206218132 0.3241810854
C -0.5548368265 0.6589811574 -0.148728441
C -1.6894618345 -0.2408979377 0.5537634161
C -3.1124759714 -0.2544382043 0.0632456295
C -0.6870899039 -1.065912717 -0.081562648
H 3.7226489467 0.3141955002 -0.8726581399
H 3.0572676389 0.727874845 0.7067508752
H 2.3673607811 1.4350067006 -0.754587326
H 1.5682652684 -0.8470971638 -1.4837544028
H 2.2886817407 -1.554586776 -0.0526052648
H 0.7095300932 -0.1828370551 1.3835106915
H -0.6431301104 0.9197936092 -1.1950965954
H -0.4227300511 1.5252855273 0.4880954952
H -1.5977335354 0.0022310203 1.6199515026
H -3.6770570305 -1.0303637283 0.5845255324
H -3.6121621095 0.6994473884 0.2458218229
H -3.1408754339 -0.4742498623 -1.004046345
