17
0
O 2.0040823563 0.5342641446 0.6602618762
C 1.7469087957 -0.5343104168 -0.2342837408
C 0.395872421 -1.1478067287 0.0988129783
C -0.7616518104 -0.1971016373 -0.0826547077
C -1.3982755328 -0.0743224931 -1.2392425786
O -2.1129194781 1.5908563983 0.9326266885
C -1.1348284589 0.5998526849 1.1410945753
H 2.8290186793 0.954115145 0.4147360281
H 2.5237857163 -1.3043398577 -0.1458914158
H 1.7337270204 -0.1762229731 -1.2712872638
H 0.4270022879 -1.5122124067 1.1306010264
H 0.2589346405 -2.019380084 -0.5451801868
H -1.7398693884 2.2597077358 0.354879075
H -2.2292211376 0.6096726101 -1.3570170898
H -1.1182956067 -0.6706396594 -2.1006990612
H -0.2192093466 1.0226700541 1.5710471629
H -1.5493721581 -0.0839285159 1.8887046337
