15
0
C -1.8170096323 0.5493619318 0.1027195316
C -1.0660247504 -0.6639984808 0.5476613459
C -0.5658711712 -0.849828038 1.7621530576
O 1.6872793267 1.002773728 -0.0758335277
C 2.0370965127 0.1871113151 -1.1700796243
H -1.9271328033 1.2704763284 0.9132886624
H -1.2991005184 1.0425006786 -0.7238995999
H -2.8122877352 0.2769505798 -0.2566795317
H 1.1130699903 0.4944193527 0.5052353626
H -0.9232169753 -1.4423956946 -0.1990385514
H -0.0301130424 -1.754590282 2.0228971777
H -0.6889396273 -0.1063120812 2.5434605718
H 2.5880078863 -0.7087618166 -0.8607323592
H 1.1608698141 -0.126897929 -1.7512127623
H 2.6817747257 0.7768414077 -1.8214787532
