13
0
N 2.7199391103 -0.9437025537 1.2835534176
C 2.0514037903 -0.4588222668 0.4866336081
C 1.1801612175 0.1821486742 -0.478095965
C 0.416174655 -0.656229026 -1.4967040568
C -1.0225907748 -0.5209635259 0.8119793569
C -1.3269831911 0.7869958041 0.1426271304
N -0.2362554693 -0.0527719105 -0.2932512566
H 1.4261396167 1.2298539833 -0.637259967
H 0.1593305009 0.0150495224 -2.3241668194
H -1.637532132 -1.3829698811 0.5900245795
H -0.5368708088 -0.5066527578 1.7798720833
H -2.1600314473 0.8435277613 -0.5456901867
H -1.0604750673 1.7041401765 0.6524190755
