11
0
N 2.0705307352 0.3404284278 -0.0512762002
C 0.7465982885 0.1278840455 -0.0167910462
N 0.2531825598 -0.9500110213 0.5603707555
N -1.1411872701 -0.7645242617 0.3957913546
C -1.3136724133 0.6480919986 -0.4118344051
O -2.4255079055 0.9937861066 -0.6652867535
N -0.0802354406 1.0527138633 -0.5772636931
H 2.6932292513 -0.3789512723 0.2630401177
H 2.4159624948 1.1055232148 -0.5973013498
H -1.5624421308 -1.5198339215 -0.1408363893
H -1.6233681693 -0.7063951797 1.2905696093
