10
0
C -1.6941626513 0.145105408 0.5410928578
O -0.818127347 -0.9545986925 0.8906818697
C 0.419871864 -1.008159854 0.5356790879
O 0.7202225966 0.0965321611 -0.1868571396
C 2.0286637566 0.1483206171 -0.6235180035
O 2.4150504762 1.0604723022 -1.2666871418
H -2.6524952924 -0.106947161 0.9845257821
H -1.3104284196 1.0756916553 0.9537965215
H -1.7798164245 0.2277219087 -0.5404218031
H 2.6001024412 -0.7300453449 -0.2979690311
