8
0
O 0.862867614 -0.9911495697 0.0499826742
C 1.2482631308 0.4224426476 0.0201068239
C 0.0083374389 0.9784932631 0.0909057215
C -1.0079636442 -0.0300658397 0.0503256471
N -0.5862914548 -1.2425827612 -0.0280758901
H 1.3771386242 -1.603796275 -0.4898614459
H -0.1824783917 2.0375938231 0.1443062732
H -2.0803193172 0.1122567118 0.072654196
