17
0
C -2.2973424045 -0.2848560572 0.336529294
C -1.0664231231 -0.2054178989 0.8198489762
C 1.3682024881 -1.0169591995 0.4908072971
O 2.1008528969 -1.7447482893 -0.4309583515
C 1.4068040053 0.4800989679 0.4753339147
C 0.1646508701 -0.2528282519 0.0053269732
O -0.0136924324 -0.3710015035 -1.37568193
H -1.0397244631 2.46521683 -0.6150133399
H -3.1588910485 -0.2426371814 0.9900483193
H -2.4776306914 -0.4121468543 -0.7241105015
H -0.9094671362 -0.0940536375 1.8895204874
H 1.2945139018 -1.5193681575 1.4481575146
H 1.6702058889 -1.6312132303 -1.2860109131
H 1.3589498337 1.024773918 1.4095214501
H 2.0134599219 0.9320154205 -0.2993450643
H -0.6213929031 2.899595237 -1.0552678444
H -0.1884756042 0.4995788878 -1.7407612817
