17
0
C -2.181573369 -0.5690296238 0.1520180741
C -0.9543889588 0.0651165524 -0.4847914835
O -1.1438074984 1.4473294257 -0.7131818495
C 0.3080268646 -0.161150148 0.3530785893
C 1.5491509543 0.3009324144 -0.3485114513
C 2.629201611 -0.4507645912 -0.4958378466
O 0.1095714968 0.5748401322 1.5590451605
H -3.0592862642 -0.3669624019 -0.4619538061
H -2.0610223087 -1.6510948674 0.2413792609
H -2.350746662 -0.1605487862 1.149976488
H -0.7838423447 -0.3777443823 -1.4699364521
H -1.1128700326 1.8753137616 0.1485640054
H 0.3956431408 -1.2326424848 0.5775225307
H 1.5205289896 1.3167916813 -0.7322358732
H 0.9496751447 0.6418651718 2.0159212303
H 3.5137861481 -0.0833669779 -1.0017048249
H 2.6652860886 -1.4684778759 -0.1193757518
