15
0
O 1.7530400468 -0.6686017189 0.0015857868
C 1.0516582283 0.382186541 0.7524991101
C -0.0138411633 1.0448954807 -0.0935726981
C -1.1510837089 0.1447432467 -0.4684332165
O -2.0935730753 0.122325429 0.5074702923
C -1.2235671867 -0.5344285998 -1.6067473243
C 0.7857534364 -0.8672900138 1.4993077037
H 2.6827550355 -0.6476593712 0.2475704838
H 1.7688935388 1.1232425986 1.1175828804
H -0.4110789837 1.8853091149 0.481983914
H 0.45536298 1.4552827391 -0.9899678101
H -2.7054852276 -0.5990120502 0.3435196474
H -2.0574489544 -1.189055555 -1.8306239184
H -0.423799696 -0.4699962352 -2.3294536918
H 1.6192767303 -0.9670656058 2.2179638411
