12
0
N 2.3909634679 -0.4978443404 -0.0494955997
C 1.2458522835 0.1441163537 0.2056445196
C -1.4202522165 1.3083263895 0.2990666898
C -1.8976963135 0.6273471448 -0.6866983105
C -1.1676123629 -0.1435530571 0.3565831608
N 0.174092774 -0.6351331878 0.1270429606
H 2.4619218037 -1.4833516895 -0.2820222665
H 3.2513219711 0.0124796256 -0.0095436307
H -1.2311401375 2.2500559957 0.7812123258
H -2.4012782965 0.5947350877 -1.6365672325
H -1.7096008081 -0.7754304805 1.0592737931
H 0.238686835 -1.6224368417 -0.1116654098
