14
0
C 1.3184673305 -1.1717190572 -0.9173057106
N 1.5530997855 2.0577870131 0.8304019557
C 0.4717053324 1.755491747 0.5990032055
C -0.9261637637 1.4076090279 0.2843462663
O -1.0425770657 0.5758040531 -0.8367467215
C -0.973528366 -0.8022864267 -0.5467723951
O 0.2335378725 -1.1995423431 -0.0065955461
H 1.5248374171 -0.1570791521 -1.2658814474
H 2.1879704405 -1.5463006533 -0.3821880644
H 1.1143139481 -1.8183605381 -1.7781584253
H -1.4577386075 2.3342850356 0.0631983557
H -1.3766747299 0.9553720652 1.175144217
H -1.1766695166 -1.2933841537 -1.5044410626
H -1.7371410772 -1.0662266176 0.1928103728
