13
0
C -2.0984847081 -0.2234793117 -0.3805715684
C -0.768936715 -0.1226935237 -0.2421773056
C 0.4010173136 -0.3910412121 -0.9830265737
C 1.4753478106 -0.0303675879 -0.1835382665
O 2.7494887449 -0.1458413152 -0.5539489502
N 1.2178748274 0.4594474859 1.0258160944
N -0.2246945216 0.4290923449 1.0518231525
H -0.5735435822 1.3731004304 1.2014598431
H -2.521514424 -0.6143633186 -1.2935394755
H -2.7794422854 0.0758346724 0.4054189428
H 0.4504146745 -0.8016561543 -1.9749309957
H 3.2938834459 0.1689927393 0.1758446378
H -0.5301755806 -0.1468342495 1.832817465
