14
0
O -1.1286191817 -0.6906543654 1.3195002141
C -0.9450053069 -0.1109462961 0.0475981747
C -0.3680826363 1.2841271929 0.1455950206
O 0.9540131546 1.2450872142 0.7140379454
C 1.8413930612 0.2946957849 0.4081448082
N 1.3681340207 -0.6807142018 -0.3666279609
C 0.0001348078 -0.92224526 -0.8221369063
H -0.3303748231 -0.5614394171 1.8405657138
H -1.9329602814 -0.0746830884 -0.414266494
H -0.3146913915 1.7540656624 -0.8401572714
H -0.9575396653 1.9124845019 0.8110888009
H 2.0467537368 -1.3923831623 -0.5722254539
H -0.1106833101 -0.6386661916 -1.8726556949
H -0.2284501847 -1.9840803737 -0.7242038961
