15
0
C 2.5288557946 0.5463511157 -0.2687675101
O 1.1406962721 0.4424318419 -0.1014091401
C 0.6896182042 -0.8940927037 0.0331556303
C -0.7801740575 -1.0421497459 0.2352935405
C -2.8128702796 0.2602387197 0.4417872536
N -1.3827500786 0.1059404174 0.2589411409
H 2.8641326541 0.0221171534 -1.17288664
H 3.067326952 0.1315682285 0.5930362411
H 2.7741292591 1.6037359951 -0.3635015089
H 1.1847313271 -1.3806878028 0.8864810318
H 0.957888145 -1.4805819008 -0.8578495862
H -3.2438862618 -0.7316386489 0.5543072801
H -3.0218581934 0.8557716196 1.3328529664
H -3.2565858453 0.7566860476 -0.4236275552
H -0.8490128919 0.9668396633 0.1457168561
