12
0
O -2.1454187552 0.6806891131 -0.5476494921
C -1.6017584639 -0.5813447415 0.2160795833
C -0.1857498877 -0.3796754578 0.1058097961
N 0.3024531824 0.5013541078 -0.7714492987
N 1.6450005177 0.4058191274 -0.589307327
C 1.8940001344 -0.5187127274 0.3415422154
N 0.7869795943 -1.032748294 0.8135215733
H -1.3002637943 1.1197383744 -0.8713489898
H -2.6063012057 0.326772949 -1.314201794
H -1.9989501637 -0.472889932 1.2206953052
H 2.2818322349 0.9186237582 -1.1687552534
H 2.8949926067 -0.7869182773 0.6458346816
