13
0
C 0.7928458066 0.6618266934 1.3686124364
C -0.5087722765 -0.7262985113 -1.7868980775
C 0.276199872 -0.9900254579 -0.5104887347
N 0.1383125186 0.3293276229 0.1322158683
C -0.9669084783 0.8924443673 -0.3222671597
O -1.4587299174 0.3213963982 -1.332132478
H 1.8717971561 0.7105871016 1.21805327
H 0.4449878107 1.6299957665 1.7280916304
H 0.5798135226 -0.0978835637 2.1276479335
H -1.1388470578 -1.5524683555 -2.1114348214
H -0.0992799624 -1.7615577374 0.2037768728
H 1.3300722968 -1.2054785479 -0.701076093
H -1.3869872909 1.8121202237 0.0640303528
