13
0
C -2.2766419361 -0.1339516949 -0.2780853499
C -0.779081514 -0.2940235876 -0.2050486776
O -0.2082233826 1.0294066157 -0.0893934462
C 1.0697371532 1.2911591484 -0.0064313435
N 1.8470269615 0.165170812 -0.0344093828
C 3.1880854095 0.2822230208 0.0416818552
N 4.3333428664 0.3310510696 0.1033372188
H -2.5556154161 0.4670397213 -1.1432867576
H -2.7513193884 -1.1122574542 -0.3650661363
H -2.653337172 0.3553042629 0.6198765898
H -0.3919432538 -0.7717455112 -1.1105081014
H -0.4916940505 -0.886328154 0.6694331543
H 1.5024727229 -0.7856422485 -0.1085506228
