12
0
O 2.1949091474 -0.867864054 0.2607117128
C 0.9422330532 -0.3826210558 0.1067747325
C -0.2202185025 -1.0253638389 -0.0840800559
C -1.3084830157 -0.0016509986 -0.1919663655
C -0.5789096477 1.2983030657 -0.0322177185
C 0.724823746 1.0644357556 0.1405123985
H 2.1709916472 -1.8261146624 0.2165703108
H -0.3712847618 -2.0936090911 -0.1525876383
H -1.8313210384 -0.0449009078 -1.1542986788
H -2.0749461555 -0.1231832151 0.5821577564
H -1.06153023 2.2651906305 -0.0564183487
H 1.5135227575 1.7894223718 0.2853248947
