13
0
C 0.4528240497 -1.2173469039 0.033134151
C 1.5730620747 -0.5077997176 -0.6924116886
C 1.1177795838 0.7151381508 -0.4299034132
C -2.4108853511 1.0314586749 0.5712711268
N -1.3898659133 0.5659676977 -0.0885623663
C -0.0553985568 0.2166569672 0.3856569351
H 0.7341851177 -1.8356311581 0.8878514656
H -0.2346037838 -1.7840558048 -0.5982302368
H 2.4471646241 -0.8797805485 -1.2118545565
H 1.4568594783 1.7150466015 -0.6687031383
H -2.0779125726 1.1292637694 1.625514641
H -1.5129908821 0.4166172232 -1.0843986814
H -0.0212028689 0.4539130482 1.4500687617
