13
0
C -0.7707304999 0.4350541467 -1.662954275
C 0.378797159 -0.2854744572 1.5305340757
O 0.4876501136 -1.6391557429 1.1507835749
C 0.3630962649 0.6961739264 0.6012054915
O 0.3483768083 1.9179800942 0.5573646444
N 0.3938705035 0.0234884681 -0.8670112704
H -0.8494892213 1.5181223365 -1.5893359249
H -1.6601384722 -0.0183963121 -1.2300003804
H -0.6613784384 0.1262140565 -2.7017474833
H 0.4492242586 -0.0544505691 2.583659718
H -0.2736439692 -2.1094860993 1.4945301281
H 0.4538725122 -0.9844403868 -0.7167937652
H 1.2544839811 0.358673539 -1.2887195331
