14
0
C 2.4066648294 0.3941416661 -0.1908234546
C 0.9188458303 0.3768195495 0.0115134546
C 0.1006222711 -0.4344988497 -0.5903584157
C -0.7269571992 -1.2387403529 -1.1952585622
C -2.3796109904 0.4482982452 1.227736863
O -1.9745703292 1.5450190997 1.4876055463
H 2.9245708689 0.2219599181 0.7553029366
H 2.7177287692 -0.3707855516 -0.9010927182
H 2.7309262389 1.3675494317 -0.5655923392
H -1.1746017477 -0.9688035216 -2.1452735236
H -0.9805874573 -2.2060421713 -0.7754065528
H -3.1645531357 0.2783936235 0.467504736
H -1.9915646311 -0.4546361776 1.7345078812
H 0.4908196827 1.095089091 0.7077591484
