12
0
O -0.3993575984 1.8354202087 -1.197510253
C 0.4125433744 -0.6768032098 1.4163003556
C -0.8030351768 -1.1681921436 1.2010504903
C -1.3338934235 1.024994685 -1.5475294349
N -2.1936473929 0.3285149718 -1.8677194676
C 1.2933805545 -0.268102837 0.3656113836
C 2.0522731975 0.0841816576 -0.4978872524
H 0.3503336727 1.3289165618 -0.8162310955
H 0.7953658093 -0.5603684021 2.4244491887
H -1.2093658933 -1.284020782 0.2032647144
H -1.431292316 -1.4582766401 2.0332953837
H 2.7483221923 0.3524049297 -1.2589090132
