17
0
C -2.0582391895 1.3817185421 -0.6385860144
C -2.3009081604 0.0952285896 -0.8279342651
N 0.8334077686 -1.4348605064 -0.5897804301
C 1.4996683171 -1.6827826064 0.4338204017
C 1.2598439678 -0.2650896673 0.2866397571
C 2.2873015036 0.6951108136 -0.2458245705
H -1.620408607 -0.9736948067 1.8844280043
H -1.0692738189 1.7996342881 -0.792336384
H -2.8351759156 2.0725493136 -0.3308436893
H -3.292408402 -0.3187343045 -0.6796662528
H -1.5208132367 -0.5923783603 -1.1361618241
H -1.4615946498 -1.4682356606 2.4197103072
H 1.9223534751 -2.5407339731 0.9392465514
H 0.4493510182 0.1826284443 0.8576239259
H 2.7876326736 1.2199835101 0.5714757524
H 1.8191323502 1.4449300026 -0.8879602143
H 3.0449759055 0.1722313814 -0.8310560553
