10
0
O 3.1484595876 0.5384047804 -0.5657161163
C 2.1664089703 -0.1132957266 -0.396830542
C 1.0599265087 0.3358092193 0.5779136688
N -0.0446546508 -0.5351087054 0.555446948
C -1.1836165163 -0.288298814 0.2107282329
C -2.4163648892 -0.0932583544 -0.1526079963
O 1.1717436389 1.2601513414 1.3203222869
H 1.9721411486 -1.0650378709 -0.9267317508
H -2.7334190189 -0.33937308 -1.1557116331
H -3.121247779 0.3251262101 0.5515349017
