11
0
C 2.9636099049 -0.3766156529 -0.0433325411
C 1.7899451928 -0.1418518209 -0.0072905823
C 0.3827256093 0.0901131356 0.0232358129
C -0.642972854 -0.8439347613 -0.2460662637
C -1.8021615057 -0.1346430452 -0.0830605254
N -1.4339943932 1.1181560995 0.2566858049
N -0.1171332809 1.2821939323 0.3284476453
H 4.008563444 -0.5753267542 -0.0732297468
H -0.5315170752 -1.8794845403 -0.5176293736
H -2.8376861729 -0.4177633329 -0.1811158013
H -2.0318208691 1.9004847402 0.4518975712
