8
0
O -3.1462012455 -1.5936579352 -1.2523585899
C -2.7504709702 -0.7460097939 -0.63455326
C 0.1413260144 -0.0091639819 -0.0047262378
O -0.6074820369 0.8665046168 0.6021017762
C 1.5198460006 0.2455160355 0.2298130033
C 2.719058803 0.3132924227 0.3222081403
H -1.5302651462 0.6316532691 0.3991013716
H 3.7778105807 0.3855763668 0.4127837964
