13
0
O 1.1634007705 0.4624347112 -1.7753603285
C 0.7523382755 0.3494814239 -0.6495847985
C 0.9140467163 -0.896477062 0.1862733967
C -0.3763361028 -1.3568394551 0.858470615
C -0.8707902142 1.9679710369 -0.4765242688
N 0.1460873007 1.4280330144 0.0327159758
H 1.3214597082 -1.6665770472 -0.4681364612
H 1.6676950006 -0.6721417598 0.9469873586
H -1.1531487377 -1.5660092412 0.119998156
H -0.2022777445 -2.2719044297 1.4250919481
H -1.328726189 1.6094501674 -1.4031395998
H -1.318328451 2.8310699358 0.0124318549
H -0.7557493326 -0.6014832946 1.5472961516
