16
0
C 1.6621069348 1.1315852216 -0.1030830727
C 0.6483642775 0.0576375761 0.2936061604
C 0.1687801843 0.1491052274 1.6762279973
C -1.8696518191 -0.6302051916 -0.208758726
C -0.7528154072 0.3885192804 -0.3898915464
C 1.0900435807 -1.2714120092 -0.1592563511
N 1.4426448328 -2.3134613435 -0.4879895429
H 1.8141733846 1.145168606 -1.184032046
H 2.6223414504 0.9438325172 0.3766521228
H 1.296645283 2.102680131 0.2294787511
H -2.2833659468 -0.6184633099 0.7999789981
H -0.179750293 -0.8548973972 1.9772604246
H -1.526670659 -1.6423163676 -0.4302963376
H -2.6825354554 -0.3984554879 -0.8978199527
H -0.4899692472 0.4780190103 -1.4464203726
H -1.0570081005 1.3782825369 -0.0478875062
