10
0
O -1.1562990472 1.5513948213 0.7662087059
C -0.4647383633 0.517460806 0.2301723429
C -0.8817954736 -0.4872496087 -0.5777332794
O 0.1687418749 -1.3047094428 -0.8663832876
C 0.9293356186 0.3131457303 0.4576113095
C 1.2448317996 -0.8037914644 -0.233823098
H -2.0746137115 1.5019294685 0.4945049314
H 1.582493501 0.9246418061 1.0571082672
H -1.8330964035 -0.7492183188 -1.0088568736
H 2.1664122049 -1.3461177976 -0.3630020183
