19
0
C 2.1672862785 -1.030648526 0.1102181869
C 0.8860181377 -0.3544533261 0.5702231721
O 0.6256508323 -0.6339936559 1.9421805088
C -0.9604463106 1.8915641728 -1.3057311846
C -1.7551875865 1.2863772912 -0.4355123541
C -1.6149008326 -0.1005295581 0.1231802313
C -0.3269238876 -0.8444946594 -0.2074619449
H 3.0229967014 -0.6931128267 0.7003388429
H 2.3752021271 -0.8013352322 -0.937266765
H 2.0838268233 -2.1141041251 0.2203715477
H 1.3269000893 -0.2524081549 2.4721781855
H -0.071865232 1.4210479139 -1.7113663501
H -1.1750300996 2.8954469499 -1.6509122299
H 0.9830231726 0.7312063482 0.4372656542
H -2.627839073 1.829713548 -0.0794022793
H -2.4723808671 -0.6855030719 -0.2275823988
H -1.7243913951 -0.0525012339 1.2107798827
H -0.1155802694 -0.7869271669 -1.278962019
H -0.4570466087 -1.9049166867 0.0280733137
