11
0
N -0.7511031672 1.0616489881 0.7251342879
C -0.0971684527 0.0186519898 0.0619823929
O -0.8293140478 -0.9055114658 -0.7731616481
C 0.8924921754 -0.7341958301 0.903008886
C 0.079805765 -0.0046323143 -1.3851232105
O 1.0667223046 -0.5262271018 2.0690620488
H -0.9715685797 0.8238093688 1.6816470578
H -1.5639649051 1.3979163107 0.2328566211
H 1.4211766233 -1.5415583341 0.3606972841
H 0.9605457573 -0.4553745882 -1.8370767092
H -0.3729444733 0.8007789769 -1.9578820109
