13
0
C 0.144353347 -1.4109413992 0.8529556222
C -1.8155030526 0.6764801111 -0.1063516994
C -0.689920365 1.2368091666 -0.7690962201
C 0.5645870722 0.7491947676 -0.5726882379
C 1.0809193302 -0.4086880884 0.2025851217
H 0.7379022474 -2.2052570458 1.3117287158
H -0.4797320176 -0.9443029648 1.612066274
H -0.535529252 -1.8514080741 0.1258666373
H -2.6527644695 1.3887449442 -0.2225041829
H -0.7494616895 2.1267017394 -1.4017377242
H 1.3715639147 1.3142148061 -1.0424803828
H 1.7621754718 -0.9263996666 -0.4869534658
H 1.762099463 0.0183367039 0.9522905421
