12
0
N -1.9135324371 0.2201740787 -0.8238499838
C -2.7569733661 -0.2975531044 -1.4345373985
C -0.869223451 0.8188069087 -0.0646846636
C 0.0805451357 -0.2191607585 0.4779895702
C 1.2429964613 -0.6658849635 -0.3105394789
N 1.4077590345 0.2833227587 0.7878786715
H -0.320311676 1.5152013028 -0.6999548129
H -1.3194254179 1.3895298889 0.7496885604
H -0.3707295527 -0.9410741613 1.1517245841
H 1.4091380701 -0.254713119 -1.2996687867
H 1.5835136613 -1.6857899293 -0.1756440257
H 1.7874975378 -0.1658829016 1.6106477639
