11
0
O -0.4906252016 2.3521030915 -0.1802175964
C -0.2853481282 1.1810010314 -0.0970853876
C -1.2737035775 0.0288406685 -0.1689132826
C -0.6483512067 -1.198581649 0.390865165
C 0.8164194737 -0.9708471991 0.2698100282
C 1.0948469947 0.5208769643 0.1868104569
O 2.1218506858 1.1030794329 0.3508026141
H -2.2776933381 0.2558109318 0.1904161618
H -1.4005645429 -0.2383400796 -1.2333344815
H 1.0406856308 -1.4106955385 -0.7183303188
H 1.43998921 -1.5209336543 0.9749176412
