15
0
O 2.2163261424 0.620495077 1.2044702771
C 1.2108054769 0.2765831328 0.6504342815
C 0.7687516996 -1.1411893092 0.271314526
C -0.5671893333 -0.7665820057 -0.3782209098
C -1.1396017097 0.2570006382 0.6298821469
C 0.0606530544 1.1209684373 0.1491068384
C -0.1740551888 0.4576193251 -1.2380128099
H 0.6761058655 0.3651164046 -1.9162690504
H 0.6746530649 -1.7710179688 1.1578055905
H 1.4834947489 -1.6047563469 -0.4110568072
H -1.1759629031 -1.5735922619 -0.7791567765
H -2.0904732856 0.6781042638 0.3047057179
H -1.1863510794 -0.0206232998 1.6845430568
H 0.1336575688 2.1935794011 0.3014990051
H -1.0258391214 0.9006085122 -1.7531220865
