11
0
C -2.128865842 -0.2569162163 0.1427025198
C -0.8393030724 -0.3944691304 0.0487747979
C 0.4325953509 -0.5619683436 -0.0568285505
C 1.6807283138 -1.113458316 -0.5007965696
O 2.3504709152 -1.890566547 -1.0910028341
N 1.7114901076 0.0826357569 0.1893040852
H -2.65748356 -0.541417752 1.0459473541
H -2.7121192417 0.1435960407 -0.6791947483
H -0.2991366578 2.1574899467 1.8737769039
H 0.35666778 2.1591811445 2.2274160182
H 1.9827469064 0.9703424166 -0.2192219765
