16
0
C 2.4865726806 -0.4437630164 0.4994055033
C 2.2477257619 0.4701517816 1.426958451
O -0.2416659142 1.044116587 -0.8539166512
C -0.9974566016 -0.1116442947 -0.6754082473
C -1.5800300173 -0.4054895006 0.6736495702
C -2.454534263 0.0776441334 -0.4557738258
H 3.2501856938 -0.3004086046 -0.2566790807
H 0.6091233265 0.9088502594 -0.4232147734
H 1.9278160137 -1.3723055302 0.4621726325
H 1.4849227473 0.3228191164 2.1831329517
H 2.8057794673 1.3985781181 1.4687940442
H -0.6893182421 -0.9583621567 -1.2842362315
H -1.6620711704 -1.4360589024 0.9943574328
H -1.3631451371 0.3061689255 1.4596796069
H -3.1433838439 -0.6178243867 -0.9161564241
H -2.7972795015 1.102488471 -0.4071649582
