14
0
C -0.9730111221 -0.7995178894 -0.3547489065
C -1.5409956425 -0.4279385089 0.9914784636
C 0.484648119 1.772655834 -0.4471593308
C 1.5614851563 0.8985300935 -0.3060420702
C 1.4262066561 -0.47638684 -0.1923477204
O 0.3986148515 -1.25877393 -0.2257196718
H -1.4798800939 -1.6622084277 -0.7856945268
H -0.9864618564 0.058247681 -1.0265731617
H -2.6025055076 -0.2035287141 0.8738843385
H -1.4373371969 -1.247117557 1.7045028155
H 0.8877761721 2.7856481813 -0.6098873346
H 2.6126733419 1.2001916236 -0.2853409081
H -1.0497847324 0.466651906 1.3730151728
H 2.330752855 -1.0753294524 -0.0857301593
