19
0
C -1.9625386531 0.3016763942 -0.5272745465
C -1.6129201044 -1.1227957188 -0.1019005242
C -0.6951096641 -1.7827579399 -1.0901727348
O 0.3477216293 -2.3137325033 -0.8196709095
C 1.6074329353 0.3865268107 0.8604743296
C 2.1284399751 0.8786589027 -0.4512981879
C 1.0151024999 1.1420969673 1.7732784396
H -2.6751580226 0.7455162677 0.1678346869
H -2.4112666607 0.3219821873 -1.5231027828
H -1.0710003368 0.9304650678 -0.5376155682
H -1.1418531454 -1.1453921343 0.8810146318
H -2.5252817907 -1.7291886218 -0.0592830612
H -1.0436399069 -1.7500886492 -2.146648922
H 1.7262300704 -0.6775892239 1.0476248254
H 1.6613005242 0.3394094296 -1.2796778589
H 3.2035934062 0.7002581266 -0.5335321554
H 1.9463227851 1.9467414759 -0.5817255198
H 0.8687288611 2.2070926357 1.6209992718
H 0.656293598 0.7264405255 2.7073605862
