18
0
C 1.9756381577 0.7103461856 -0.1371139653
N 0.5199342983 0.8408303258 -0.2975477304
C -0.2133757536 -0.4172582786 0.4742894718
O 0.0423188271 -0.4039976895 1.6689686522
C -0.9166458776 -1.147420797 -0.4177788633
C -1.6915133491 -2.359401807 0.0041232214
C 0.0037910634 2.0999123993 0.2598868795
H 2.4864646481 1.5825046379 -0.5464160897
H 2.303632754 -0.1944956058 -0.6449635998
H 2.1760424508 0.6142366921 0.9285745107
H 0.2679277981 0.7637147976 -1.2766195858
H -0.926745465 -0.8614159194 -1.4632189556
H -1.600022167 -2.5014162527 1.0816257362
H -1.3291499881 -3.2713035885 -0.4808352173
H -2.7569144219 -2.2691281572 -0.2292800774
H -1.0613307402 2.164908063 0.0461779421
H 0.1500741905 2.0621315219 1.3379272208
H 0.5292045745 2.9544144727 -0.1678815505
