12
0
O 2.538009649 0.684744099 -1.109586391
C 1.6201811486 0.0032743142 -0.9313645287
C 0.6150418347 -0.8304888719 -0.8003154144
C -0.5493054553 -0.676789272 0.1442347919
C -0.8760763927 0.7702126403 0.4698135162
O 0.2390590686 1.4702581175 0.9871589025
H 0.697250532 -1.71319447 -1.4223399659
H 0.4787089438 1.0913908471 1.8356103697
H -1.4326655875 -1.1349436236 -0.3080959733
H -0.3652917364 -1.2265666465 1.076159275
H -1.7242709843 0.8133278982 1.1636738188
H -1.1595740203 1.3025089679 -0.4398524008
