9
0
O 1.7383898412 0.3895920534 -0.3738134154
C 0.5590459518 -0.1288558825 -0.0816385971
C -0.6781496546 0.6761106716 0.0247020811
N -1.6445650972 -0.3586648276 0.3544906512
N -1.0671263603 -1.4527298303 0.4113484431
N 0.3287029264 -1.3643895772 0.1438383307
H 2.3868594937 -0.3255130311 -0.3867023647
H -0.6425201265 1.4286543125 0.8148291244
H -0.9586629744 1.1732821113 -0.9059042534
