13
0
C -0.8667756135 -1.2026213282 -0.4312551842
C 0.0078985284 -0.002422688 -0.1817232995
C 0.2172623737 2.412929978 -0.6018552162
C -0.4802122453 1.2950682042 -0.7409416228
C 1.383304571 -2.5906563433 2.3326526888
O 2.3063622829 -2.2010138906 2.8402578261
O 1.0455232087 -0.0780814126 0.4335762711
H -0.4255036177 -2.0919587829 0.0118210072
H -1.0002433499 -1.3468472867 -1.5065160084
H -1.8594299515 -1.032043565 -0.0064321471
H 1.1630026846 2.400346864 -0.0717173241
H -0.1305866677 3.3554451007 -1.0059839837
H -1.4280232038 1.2874201504 -1.2698030072
