14
0
C 1.152150285 0.0157829796 -0.2199203778
C 0.3127341662 0.4334329547 1.0094368855
C -0.4447643806 -0.9102658231 0.8703431082
C -0.320749332 -0.3346471128 -0.5465570341
O -0.8203590598 -0.9669606597 -1.6666981772
C -0.7190413834 1.0450616412 0.0340355905
H -0.6242521939 -0.4314437427 -2.4381858974
H 1.6059590176 0.8252952203 -0.7954842659
H 1.8336215159 -0.825064469 -0.0849111115
H 0.6846663237 0.8806538835 1.9255595458
H -1.4501242447 -0.9508900575 1.2911965504
H 0.1255253741 -1.8169251283 1.0759944599
H -1.742352375 1.1411347839 0.3993242187
H -0.3965587134 1.9261975299 -0.5245914952
