9
0
O -2.0923646752 -0.7183749461 0.0203243636
C -0.852407959 -0.2279500262 0.0263766392
N 0.2285763805 -0.9753675363 -0.3022700099
C 1.214768764 -0.1166358713 -0.1637890785
N 0.7375053113 1.0659936024 0.2238621865
N -0.6081371265 1.0174112934 0.3540005407
H -2.0337625059 -1.6395205425 -0.2486548922
H 2.2618521741 -0.3144964958 -0.33324094
H 1.227842637 1.9207865224 0.4128881908
