10
0
C 0.7350131721 1.0036542022 -0.5009128369
C 1.5796012126 -0.2036367163 -0.4983416067
N 0.8603548908 -1.1859796592 -0.8053289701
N -0.2658661909 -1.601176624 -0.4732956601
C -0.7548508926 -0.6909509773 0.5734131946
C -0.3798792965 0.7349396783 0.1880705765
H 1.0841871611 1.9877861889 -0.7731502838
H -0.3285389657 -0.9282161076 1.5596978008
H -1.8339013815 -0.8274763986 0.6338734466
H -1.0000807094 1.5333324138 0.5769903394
