15
0
C -2.1519030343 -0.2005582018 0.4098451172
C -0.864322956 0.5558135854 0.1124657276
C 0.3304399456 -0.3727317301 -0.0644937323
C 1.608908931 0.3991144202 -0.3660315658
C 3.6187977035 -1.1983368592 -0.6749262613
N 2.7246957202 -0.4678536373 -0.5364429366
H -2.0639847785 -0.7822717189 1.330291475
H -2.9943078318 0.4824420978 0.528063361
H -2.3957369867 -0.8947145267 -0.3975776232
H -0.6587366031 1.2635280174 0.9224353948
H -0.9936403656 1.1578620404 -0.7930832118
H 0.4810158462 -0.9698471132 0.8391675232
H 0.1416124665 -1.0782963386 -0.8783325935
H 1.8412236988 1.0926685527 0.445178771
H 1.4983652442 0.987459412 -1.2796904453
