15
0
C 1.3133496786 -0.7631741602 -0.2005155614
C 0.3449030814 0.0142687644 0.6715722121
C -0.5760051531 0.9644957514 -0.0733032207
O 0.0094727363 1.8027534174 -1.0477271833
C -0.9218922061 0.821911184 -1.4837820841
C -0.4986039912 -0.8801428118 1.5524882163
O -0.4077668981 -2.0744174341 1.6020565481
H 1.8517590966 -0.0864795428 -0.8640610707
H 0.7923291868 -1.5120362159 -0.7976167926
H 2.0362078842 -1.2943699791 0.4173771409
H 0.9096013606 0.6467330071 1.3729754141
H -1.2950195532 1.4790471843 0.5640995475
H -1.8691501009 1.2110414407 -1.8447976971
H -1.2383185367 -0.3480478607 2.1889571052
H -0.4968545851 0.0097862554 -2.0645415741
