16
0
C -0.4896653076 2.1698251783 -1.2341549798
C -0.4954011989 -1.3892643214 0.6284664521
C -1.4846837491 -1.7971829675 -0.1512999863
C 0.8244319224 -0.9678003037 0.1200040334
C 1.602324241 0.0700034344 0.7969807836
O 1.9501097074 -1.2934640663 0.9277064677
H -0.0318893977 2.6970278835 -0.3980720161
H -1.1904940627 2.8323420583 -1.7396681153
H 0.2845368387 1.860714248 -1.9353505523
H -0.6207261215 -1.3426581772 1.7068973192
H -1.0173038087 1.291918624 -0.8637201507
H -2.4456242541 -2.0857463407 0.255077212
H -1.3665225238 -1.8583653882 -1.2282032394
H 0.9850601853 -1.107212624 -0.9472364444
H 2.2918431583 0.6790440726 0.2193260798
H 1.1981373711 0.5366556897 1.6915261366
