13
0
C -1.844739176 0.7048034284 -0.1927887021
C -0.7154956566 -0.1339329316 0.3363652617
O -0.9699367901 -1.4688902974 0.0933730152
C 1.5440601262 -0.4598443807 -0.0279142012
O 0.4928445863 0.2838221483 -0.3446813365
N 2.5982924848 -0.0050055106 -0.6813681982
H -1.637050356 1.762603303 -0.0338317243
H -2.7668435396 0.4392083953 0.3228936781
H -1.9696748377 0.5173024697 -1.2594839486
H -0.5343447574 0.0463141437 1.4026018129
H -0.1783309767 -1.9470975324 0.3743895219
H 3.481574474 -0.4614779601 -0.5557292906
H 2.5490114187 0.7850527245 -1.3134368882
