13
0
N -1.2416749186 0.8558231432 -1.4261068462
C -1.1251327238 1.0026833307 -0.181100493
O -0.4883846688 -1.7519301301 0.7583822308
C -0.6852483119 -2.3054740274 -0.2870180313
C 2.2620126927 0.7879511357 0.8692801506
C 1.0453383581 1.2008477042 0.6547432461
N -0.0715655908 1.6488370632 0.4925455714
H -0.4304448561 1.2283025588 -1.918096375
H -1.9176966023 0.6805179945 0.4897594839
H -1.0189754025 -1.7497003724 -1.1819842843
H -0.540865139 -3.3967761832 -0.3963645073
H 2.491104065 0.2292011063 1.7649933641
H 3.036400098 0.9887896764 0.1433984901
