14
0
C 2.4521797594 -0.2422995314 0.0400702433
C 0.9730876963 -0.1235634873 0.0144783228
C 0.0220642157 -1.1136002538 0.0940460732
C -1.1345488015 -0.3429798502 0.0187318363
N -2.3854470394 -0.8054312215 0.0500891386
C -0.8497231479 1.1251645851 -0.1078358136
O 0.5600149844 1.1771372928 -0.1027555525
H 2.8835954875 0.2053846049 -0.8579747961
H 2.7305275268 -1.2902517825 0.1017751059
H 2.8568676315 0.2967172261 0.8999988213
H -1.2250092677 1.5522629224 -1.0413854471
H -2.5088256993 -1.7995553114 0.1380820589
H -3.1936118769 -0.2143666783 -0.0049671657
H -1.2360214691 1.706824485 0.7331701747
