16
0
C 0.846818264 -0.8506543143 0.6390248476
C 0.6243724537 0.2815923298 -0.3518213165
C -0.2241090183 -0.0957687687 -1.5412908458
C -0.7581330047 -1.281311686 -1.7886209086
C 0.043129014 1.521745601 0.3013937278
C -0.3246223834 1.5887201834 1.5516629531
N -0.5592856288 1.6829733281 2.7470017554
H -0.0972843799 -1.1943346944 1.0686188056
H 1.3263016356 -1.7018504993 0.1541652487
H 1.4889382659 -0.5232875641 1.457508489
H 1.6048785618 0.5750904781 -0.7504330722
H -0.3990762315 0.71157119 -2.2494135227
H -0.6265456955 -2.1273989202 -1.1246177616
H -1.5081482549 1.4366981494 3.0172949622
H -1.3552066575 -1.4477166187 -2.6767344128
H -0.1000939406 2.4114608057 -0.3013339492
