11
0
N 2.5519399898 -0.0907359432 0.3368210221
C 1.4643424505 0.4042134014 0.1100349502
C 0.3114435052 1.009214798 -0.0229042436
C -1.0218684834 0.3606575195 0.200424703
C -1.1137603658 -1.1030368762 -0.1422262218
O -0.2074283324 -1.7866451537 -0.5263801717
H 2.9751798833 -0.5898920895 -0.4404462626
H 0.3434215487 2.0483320784 -0.3246611356
H -1.79358239 0.8681968193 -0.3880516203
H -2.1259212697 -1.5371061148 -0.0039301349
H -1.3616665361 0.4520155607 1.2413471154
