15
0
C 1.9097346961 -0.5904994414 -0.059454353
C 0.9208238715 0.5634306049 -0.1741925153
C -0.2575090488 0.3963159517 0.7467498056
O -0.2038404744 0.0991287176 1.9061029122
N -1.5745219612 0.5911402346 0.138329989
C -1.9610959502 -0.6761746829 -0.6398325749
H 1.4613162832 -1.5120449825 -0.4320078258
H 2.8080035554 -0.3815976974 -0.64067249
H 2.1958153775 -0.7450977547 0.9804101761
H 1.4029913065 1.4973494341 0.1363960466
H 0.5868484854 0.6898678116 -1.2046279254
H -1.6123418037 1.3778309932 -0.5010081529
H -1.2468415381 -0.7366701035 -1.4675660644
H -1.768006374 -1.4948123312 0.0595771885
H -2.255436425 0.7382552459 0.8786747839
