16
0
C 2.3697408455 -0.482417161 0.2889298904
C 0.8992761946 -0.2561023951 0.2291822174
N 0.3170980332 0.1310356389 -0.9130926762
O 0.2292616139 -0.416444744 1.2920505593
C -1.1147676528 0.0894765286 1.494574064
C -1.127312275 0.195671466 -1.0371044656
C -1.6611699815 0.7785486942 0.2849372832
H 2.6081606125 -1.038664074 1.1927139561
H 2.7196227649 -1.0397242473 -0.5813585818
H 2.9055032516 0.4706906341 0.3230284135
H 0.9046654653 0.3318620426 -1.7001667966
H -1.6751293711 -0.7709319985 1.8531791659
H -1.3631922151 0.8154171427 -1.9048426738
H -1.5437698151 -0.8005415893 -1.203353152
H -1.4130274873 1.8473741012 0.2742224717
H -2.7512629835 0.7128199609 0.3131083247
