14
0
O 2.5153041801 -0.4363599997 -0.2447330938
C 1.7013708837 0.2628991219 0.2845992825
C 0.2278291304 -0.0760137063 0.4023984466
C -0.1168265695 -1.3913843279 -0.2782940094
C -1.9072258176 0.8399044648 0.2666959026
C -0.5433437766 1.1772336607 -0.1487991233
H 1.9904680369 1.2342384221 0.7375231026
H 0.0207598585 -0.1362002959 1.4784722583
H -0.0653957521 -1.2919345089 -1.3641267573
H 0.5971767104 -2.1609612529 0.0127194331
H -2.3711571282 0.2706198218 -0.5615775365
H -1.1169454176 -1.7302476209 -0.0070969467
H -0.3397991196 1.2595630718 -1.2237439209
H -0.1513202189 2.0497681494 0.3813939621
