15
0
O -1.9818068352 -0.565642684 1.3332398559
C -1.8232784899 0.2460366843 0.1910972846
C -0.7788819331 -0.2940290354 -0.752484457
C 0.0579935632 0.6613328936 -1.5817477292
C 0.6383260772 -0.049464869 -0.4336901732
C 1.6311794974 -0.2635512057 0.3509948611
C 2.6349142053 -0.4945188716 1.149922949
H -1.1254334056 -0.6433564247 1.7611966653
H -1.5603301191 1.2757483985 0.4688600276
H -2.7979950233 0.2716528217 -0.3001026174
H -1.0139278391 -1.2542521669 -1.2013621999
H 0.3526428338 0.3489239719 -2.5763187544
H -0.1297292982 1.7241584737 -1.473206361
H 3.3404845321 -1.2915355346 0.9465586173
H 2.7951492343 0.1086365483 2.0359720311
