13
0
C -2.7167741922 0.2153286731 0.1623244555
C -1.2299716756 -0.01860948 0.1277636793
N 2.0144889398 -0.8907540287 0.2586994129
C 2.9785547087 -0.1700825139 -0.1180221922
C -0.3827946321 0.8426871602 -0.3715888039
O 0.3372851478 1.6336292399 -0.8242985653
H -3.2493283342 -0.5574339809 -0.3962985818
H -2.9786982433 1.1789244581 -0.2750038515
H -3.0925954297 0.2047449044 1.1877797533
H -0.7810232652 -0.9205433368 0.5197347089
H 2.3418177248 -1.7821240483 0.6275409145
H 2.7669228739 0.8142267582 -0.5350095611
H 4.0296483771 -0.4673578054 -0.0550213684
