13
0
C 1.9047918647 -0.1305257998 -0.2719181066
C 1.2224134388 1.0164376406 0.4073064615
C -1.6222820647 -1.0054203811 0.2031351496
C -2.1365627672 0.1318361124 -0.2347025596
O 0.9600317555 1.0609382952 1.5782716637
H 2.8224751509 0.2232796402 -0.7490841999
H 2.1322301152 -0.921780625 0.4398946818
H 1.2543029858 -0.5108801064 -1.0635903072
H 0.9560175141 1.8660940221 -0.256039606
H -1.7720761575 -1.9394986112 -0.3268627744
H -1.034547504 -1.0438617014 1.1134767827
H -1.9898017641 1.0610926844 0.3046143487
H -2.7283695674 0.1779728299 -1.1419875342
