10
0
O -1.899425466 1.9109464641 0.624112794
C -0.8983871571 1.2760491712 0.4210294707
C -0.9482889158 -0.1240863533 -0.0576432053
C 0.1031274765 -0.9088750092 -0.3023512032
O 2.4147219598 -1.3113340331 -0.3741017534
C 1.5264939879 -0.5350118643 -0.1400980171
H -1.9552721648 -0.5009251072 -0.2072686338
H 0.0946489533 1.7291332447 0.5879961649
H -0.0462650808 -1.9256988277 -0.6518969026
H 1.7550834071 0.4886033145 0.2053082856
