10
0
C -1.7197419353 0.2891297502 0.5205658353
C 0.2878638536 -0.5664516517 -0.2874285238
O -0.3312061243 0.4588348933 0.2131966568
C 1.7097682837 -0.1785175957 -0.5282661596
H -2.2795779926 1.0314803685 -0.0470527663
H -2.0222581202 -0.7216327741 0.251603717
H -1.850204128 0.4674452292 1.5873849669
H 1.9342953746 -0.3820526651 -1.5789532273
H 1.9613793468 0.8562450187 -0.2752968359
H 2.3361904416 -0.8719575731 0.0404823367
