14
0
C 1.3056866133 -0.3769108877 -0.5877512658
C -0.0378825484 0.0509644686 -0.0084618766
C -0.5538191646 -0.8948149365 1.0704096738
C -1.1212735742 0.430979928 -0.9857563682
O -1.0604540002 1.7261077328 -0.6242158531
C -0.0868785295 1.5298583684 0.2875910776
H 1.2594528286 -1.4099944829 -0.9361891934
H 2.0811350859 -0.3085763976 0.1786654234
H 1.5883239515 0.2536848926 -1.4316414399
H -0.7676313943 -1.8741862452 0.6353993581
H 0.1943653789 -1.0268646889 1.8533112321
H -2.1080029238 0.0068908293 -1.1541922099
H -1.4641230774 -0.5073659792 1.5294586064
H 0.7057643544 2.2720613984 0.3312598358
