15
0
C -1.2988804297 0.996628219 -0.3598256657
N -0.5633332317 -0.0402424745 -0.1028994907
C -0.0790605171 -1.2406669429 -0.3375262932
C 0.6020798295 -0.4234852086 0.6837670749
C 1.8637479049 0.3861351564 0.4418227003
O 2.1010791635 0.6698370874 -0.9133487683
H -1.9629755979 0.9707080456 -1.2111677644
H -3.3182096017 -1.423288575 0.2300511834
H -1.2882369201 1.8214097354 0.3359291866
H -2.6537338023 -1.7670660732 0.2062737324
H 0.1792635356 -1.6885266582 -1.2828925119
H 0.411693862 -0.6385654545 1.7361732581
H 2.7134927564 -0.2044374691 0.7913350775
H 1.8362766033 1.3028314781 1.0465227779
H 1.3820154451 1.217919134 -1.239318497
