13
0
C 2.2865670098 0.0579444191 -0.2899793077
O 1.2123022481 -0.8838166804 -0.1368872029
C 0.0196274841 -0.4087391022 -0.0181113325
C -0.9041399841 -1.5763350797 0.120018424
N -2.1362713787 -1.3148394556 0.2396915176
C -1.5941271195 2.5285419394 -0.017414601
N -2.0724858205 3.5689238997 -0.0359295328
H 1.887884716 1.0683866614 -0.2239191783
H 2.7446057374 -0.122334849 -1.2608946153
H 3.0060301379 -0.1385617491 0.502527486
H -0.4826769334 -2.5910970351 0.1116442747
H -2.6904447942 -2.1661998601 0.3267673571
H -1.1186703028 1.5519358917 -0.0034942888
