10
0
C -2.2444598868 -0.6502929277 -0.0994883517
C -0.9068345923 -0.4959616984 0.4582441719
N 0.1468126809 -0.3751571835 0.8960968919
O 1.259466642 -0.248203111 1.3604225698
N 3.6868550867 1.7592211445 -1.4486724334
C 3.1342868542 1.2172940826 -0.6053709138
H -2.9620579888 -0.0708112409 0.4811036702
H -2.5409482634 -1.6989847513 -0.0805802564
H -2.2621363278 -0.2988445534 -1.1311088805
H 2.5970197953 0.7055192392 0.1786315321
