10
0
N -1.0495245884 1.0539310858 -1.2462653147
C -0.3156160631 0.502704757 -0.3941899969
O 1.069134139 0.4501061557 -0.5493119263
C 1.7155747207 -0.5397408001 0.0922512459
O 1.1871419824 -1.4151785821 0.7051651153
C -0.8164677849 0.1562751752 0.9684165919
O -1.8335572927 -0.6343869124 0.8635064417
H -0.51421168 1.4211957437 -2.0303720604
H 2.796550679 -0.4241871935 -0.0497195416
H -2.203969112 -0.7767314291 1.7426264449
