17
0
C 1.4264478355 2.1836947321 0.30569799
O 0.4888311422 1.2291776923 -0.1147251667
C -0.3118885855 -1.7478478701 -1.0124374348
C 0.1387767071 -1.915800886 0.4107456233
O -0.6209511818 -3.1693124234 0.4481873053
C -0.9608113935 -2.8992513243 -0.8577053767
C -0.835126402 1.661698133 0.0570669507
H 1.3071512128 2.4190804249 1.3717936589
H 2.4186697708 1.763977565 0.144768093
H 1.3368774773 3.1161994963 -0.2672547407
H -0.1510487164 -1.0178992226 -1.7845946455
H -0.2489407675 -1.2114648673 1.1456246408
H 1.1984258293 -2.1098169137 0.5775044059
H -1.59256634 -3.5739741501 -1.4199102783
H -1.0439297712 2.5600472773 -0.5386670841
H -1.4899912329 0.855633047 -0.2735677599
H -1.049619584 1.8861212896 1.1106388187
