17
0
C 2.5296507873 0.5705413714 0.2080366413
C 1.2577120925 -0.2604777292 0.3096994071
C 0.0030738272 0.5997431333 0.4027155614
N -1.5136436093 -0.965307806 -0.7259282759
C -1.2916547376 -0.2019482954 0.4859008165
C -2.5897257458 -0.7836943967 -1.3483624273
H 2.5199747702 1.194555894 -0.6892485544
H 3.4179403362 -0.0619380058 0.1605577649
H 2.6408526673 1.2342131268 1.0696318129
H 1.1728118902 -0.9242731154 -0.5536449429
H 1.3106684685 -0.909043204 1.1909028368
H -0.0514863065 1.2685585725 -0.4632810419
H 0.0631128287 1.2422888509 1.2876272258
H -1.2159771843 -0.9174837559 1.311341535
H -2.1367922339 0.4689097238 0.7022255803
H -3.3658472653 -0.0822950828 -1.012888304
H -2.7790165856 -1.3391692816 -2.2654406357
