15
0
C 1.7591331015 -0.4039075077 0.7611993043
C 0.4927210077 -0.4497912198 -0.0376347335
C 0.3603505911 -1.0826485296 -1.1932695663
C -0.6631124283 0.2814749534 0.5698826547
O -1.0425331006 -0.3051441837 1.7617177366
C -1.5931438788 1.0878840847 -0.2133447322
O -0.5706682275 1.6859670068 0.6013539976
H 2.0556108699 0.6324155285 0.939536287
H 2.5696490321 -0.9168533802 0.244726131
H 1.6104879257 -0.8717414251 1.7362770085
H 1.1925146076 -1.6122186053 -1.6420881662
H -0.5826453292 -1.1013491632 -1.7259191657
H -1.5430212292 0.3414937474 2.2671609946
H -1.4583730479 1.2161141176 -1.2826381306
H -2.607071894 1.2239855761 0.1533723805
