17
0
C -2.7773466097 -0.9891401991 0.2447792826
C -0.2084789585 1.5816992154 -0.823985924
O -0.5046664395 2.1012083851 0.3215011675
C 0.449131379 0.2460682268 -0.613751161
C 1.9691515231 0.2613682206 -0.8503028315
C 2.0618670595 -0.1668849644 0.6180701583
O 0.6288238568 -0.1252448271 0.7800710464
H -3.6512197897 -1.0207069297 0.8935565647
H -2.7916325724 -1.8511854371 -0.4210916041
H -1.8721156806 -1.0138332582 0.8510307929
H -2.802277112 -0.0733366087 -0.3453286729
H -0.2298886678 1.4887659399 1.0497748253
H -0.1126693358 -0.514734347 -1.1618004262
H 2.33382651 -0.4565410801 -1.5799239928
H 2.3708769326 1.2478390377 -1.0754059275
H 2.5659318898 0.5297476192 1.2911272033
H 2.4392230153 -1.1765759931 0.7890864986
