14
0
O 1.8827793426 -0.8600895552 1.45822322
C 0.9014380279 -0.2611851512 1.104702948
C 0.0627505002 1.0840117061 -0.8526890353
N -1.315635882 0.8959335995 -0.3748651872
C -1.1320700492 -0.5633712279 -0.3514183117
C 0.3981034751 -0.3283954253 -0.3122078701
O 1.1991116764 -1.1454404965 -1.0865612805
H 1.9032603381 -1.4741266501 -0.5101852173
H 0.3153301278 0.3701405241 1.7962804232
H 0.5888731198 1.9430811563 -0.4292669801
H 0.1796089446 1.079445219 -1.9413528542
H -2.0449715542 1.2397560605 -0.9822845603
H -1.3845014277 -1.0764364337 -1.2850912739
H -1.6017396395 -1.0782503256 0.4902719793
