12
0
O 3.8720802951 -0.0486281181 -0.0212606972
C 2.9056445068 0.5216106857 -0.0642654692
O 0.8158384371 -1.7683463741 0.655545023
C -0.2481118647 -1.2183627932 0.568818216
C -0.6549565483 -0.2948157869 -0.5436915857
C -1.0552828601 1.0778611918 -0.0051959007
H -0.2030864433 1.5730820519 0.462657841
H -1.0181729637 -1.3709396458 1.3570780323
H 0.1661483806 -0.2231473837 -1.257382671
H -1.5108508737 -0.755791801 -1.0497204641
H -1.4154161277 1.7173878488 -0.8109705195
H -1.8523439379 0.9966781245 0.737426195
