13
0
C -1.1916204069 -0.7280032194 0.1442112354
O -0.0024115519 -1.3151391744 -0.30998026
C 1.1297074622 -0.615148884 0.1676502594
C 1.1146297517 0.8106907067 -0.3454612609
N -0.1465924877 1.4965833489 -0.0951961086
C -1.1554241294 0.7757977837 0.1347174825
H -1.440245661 -1.0672462388 1.1635862457
H -1.9951566026 -1.0705625212 -0.5126332286
H 1.1396385317 -0.6228948828 1.2677046957
H 2.0073814303 -1.1575627947 -0.1843522079
H 1.9133967936 1.3921526663 0.1214834601
H 1.2973375298 0.8287163509 -1.4239582507
H -2.10230966 1.2764168586 0.3491589377
