14
0
C -1.3940802148 -0.1619690226 -0.5648400056
C -0.341278305 0.6222816811 0.206055745
O -0.9484531441 1.5351806063 1.1129700519
C 0.5435569494 -0.2888962433 1.0071957947
C 1.846079727 -0.1560739971 1.0167338763
O 2.9971917989 -0.0496673905 1.0004651449
H -2.0400690927 0.5118642959 -1.1336955963
H -0.9244098587 -0.851232823 -1.267563762
H -2.0167556689 -0.7348624265 0.1249387685
H 0.2842156952 1.1763933745 -0.5062845288
H -1.5873174692 2.0635687943 0.62881551
H 1.6307335722 -1.4623302102 -1.6310312415
H 0.1161466917 -1.029605201 1.6705076087
H 1.970899319 -1.4591704378 -2.2945623655
