19
0
C -2.4011493716 -0.9037998119 -0.3532407296
C -1.1133333776 -0.1565157435 -0.0236133574
C -1.2838165476 0.7033091297 1.2411111481
C 0.0176845599 -1.1044844944 0.0974623422
O 1.2502125424 -0.6961654858 0.0590581009
C 1.7333227002 0.5026375843 -0.0841603465
C 3.2034962309 0.615510224 -0.2608076318
H -3.2414794492 -0.2121114801 -0.4357430426
H -2.3143883479 -1.4489656648 -1.2945587864
H -2.6402674307 -1.6237937649 0.4338967624
H -0.8848245382 0.5263284674 -0.8611729942
H -1.6708283507 0.0901750072 2.0574688023
H -1.9859818987 1.5218086054 1.0655357729
H -0.3379729691 1.1371368529 1.5727348301
H -0.0757610799 -2.1682022656 0.2555372658
H 1.0457912961 1.3232225305 -0.2350489855
H 3.7091760725 -0.2138436705 0.2369724217
H 3.5749508695 1.5452248823 0.1751217349
H 3.5128530896 0.6056210978 -1.3143703073
