15
0
C 1.4255919474 -0.4554569775 -0.630153542
C 0.1356932973 0.1187766171 -0.0907312828
C 0.0158083442 1.6236174271 -0.1640192865
C -1.1580232975 -0.7109640066 -0.3106777452
C -0.5234926618 -0.5747382817 1.0083028811
N -0.4876921358 -0.8230192762 2.2361638341
H 2.2818187204 -0.0463017537 -0.0900526112
H 1.454658221 -1.5411905214 -0.5244819959
H 1.541925667 -0.2108788787 -1.6891730519
H 0.8262647278 2.0985418934 0.3927043515
H -0.9270038138 1.9717211971 0.2608864494
H 0.0702499781 1.9629722764 -1.2016866622
H -1.273141179 -1.4166894537 2.5029358811
H -1.0696320703 -1.6562747632 -0.8352854801
H -2.0787107451 -0.1697394981 -0.5009077392
