16
0
O -2.0500669091 -1.351822207 0.6581632731
C -1.6984734402 -0.6508629195 -0.5053426078
C -0.9412245201 0.6420127627 -0.2203369913
C 0.4185674972 0.4170568024 0.4002015693
C 1.6281568875 0.1905833673 -0.559226383
N 1.4292362775 1.4483187415 0.0803298522
C 0.6960190575 -0.6677510984 1.2485474735
H -1.2125208747 -1.5285713112 1.1203523173
H -2.6267362632 -0.4121569632 -1.0286312511
H -1.5258364125 1.2539719831 0.4719376202
H -0.8247506286 1.2248438486 -1.1375865113
H 1.2972988595 0.1013512104 -1.5872326088
H 2.4753481913 -0.4294409607 -0.2906999157
H 2.080558196 1.5451398159 0.8522112064
H -1.0987084547 -1.2808102876 -1.1808981864
H 1.681910537 -0.5366807845 1.7204361434
