14
0
C -2.3286350504 0.081009593 -0.3953750215
C -2.101662525 -0.8649463217 0.5030777464
N 0.9505611127 0.9041267128 0.7986735099
C 1.5960406823 0.3483354522 -0.1439085397
N 1.0548123639 -0.5777987632 -0.9725768709
C 3.0051568794 0.6370803457 -0.4125536695
N 4.1073663901 0.8919112945 -0.601629055
H 0.0621761967 -0.742844153 -0.8997700406
H -1.7691063611 1.0104117899 -0.3771382042
H -3.0829120253 -0.0327907665 -1.1661969413
H -2.6599224668 -1.7945524025 0.5064764473
H -1.3489697421 -0.7287585027 1.2722248814
H 1.5336040152 1.5412818163 1.3267896855
H 1.5393845303 -0.8634610948 -1.8015889278
