13
0
N -1.6492330319 -0.5445277213 -1.5752176771
C -0.9097830099 -0.2781499964 -0.4093502998
O -0.7994912338 1.0982033883 0.0031221815
C 0.362986957 0.4230106548 -0.4552301334
C 1.4459030298 0.2321590801 0.579125122
O 0.922130971 -0.0813179812 1.8442451139
H -1.1016466622 -0.7349266469 -2.3969320909
H -2.384861997 -1.2182186808 -1.4548257949
H -1.0988020434 -0.9369786934 0.4333251792
H 0.7193257234 0.7581855167 -1.4302286213
H 2.1027619882 -0.5890019249 0.2830134208
H 2.053338684 1.1468188037 0.6192974513
H 0.2162276246 0.5509542012 2.0151491485
