14
0
C -1.5264355453 0.7725395891 -0.2992726372
C -0.3102320125 0.2712109789 0.4738071252
C 0.9438173365 1.0419893157 0.1388332516
N 1.9662401861 0.387009144 -0.2335993972
C 1.6062887772 -1.0061380601 -0.2248212582
O 2.3674997327 -1.8873107617 -0.4813994001
C 0.1344403903 -1.1521799973 0.1534663724
H -1.3708203355 0.6730688784 -1.375931539
H -1.7293953287 1.8231297448 -0.0820959815
H -2.4142164666 0.1978462704 -0.032251879
H 0.9812503799 2.1285840851 0.2067684181
H -0.5007183198 0.3931938185 1.5455875312
H 0.0367619563 -1.8540516687 0.980604932
H -0.3995797507 -1.5769683372 -0.6988425383
