13
0
O 1.2855698839 2.378961022 -0.6605881528
C -0.2380347459 -0.621304596 0.2098056895
C -1.5645566539 -1.324653417 0.3657739984
O -2.1911448253 -0.0548042551 -0.0230411498
C -0.9548457335 0.4722857485 -0.1319356248
C 1.1478073306 -0.9584574717 0.3526258031
O 2.0798938931 -0.1982558872 0.1637052249
H 1.7074983885 1.5493759526 -0.3793348133
H -1.8779062644 -1.6018942643 1.3716638888
H -1.8150440215 -2.0992941865 -0.3582283901
H 1.9462290462 2.8569606464 -1.1606899219
H -0.7744634874 1.4988486575 -0.4269997253
H 1.3537571898 -2.0014939492 0.6587941731
