12
0
O 1.4036385302 -0.0220212147 1.2188312992
N 2.0279901259 0.01751346 -0.3090132138
C 0.6871614087 -0.0344844303 -0.0612990131
C -0.4506753676 0.9762814814 -0.2738299564
N -1.4109808703 -0.1225476649 -0.0707794399
C -0.3545034194 -1.1448811716 -0.2188087303
H 1.493984856 0.8995732274 1.4920445812
H -0.4067320113 1.3810737159 -1.2910857483
H -0.5355687711 1.8058707056 0.4348117445
H -2.1535902589 -0.1719683314 -0.7521756492
H -0.2800962318 -1.596081478 -1.2140037649
H -0.3521479905 -1.9282242994 0.5403998911
