14
0
C -1.7719970057 -0.815801099 0.4740059403
C -2.0733036729 0.0740741588 -0.4583792556
O 1.2897594641 1.5661387897 -0.4329314059
C 0.7137479373 1.5467664138 0.6200748399
C 2.1586746005 -0.968803046 -0.6292838637
O 1.7392182808 -1.4420748361 0.3915244429
H -2.4674751294 -1.0526247552 1.2716143331
H -0.8230498875 -1.3420936324 0.4769558673
H -1.3835381958 0.3118063903 -1.2607356191
H -3.0229086354 0.5974295603 -0.4628587155
H 0.7832793542 0.6822767358 1.3031411619
H 0.0873329048 2.3945981416 0.948615845
H 3.1702235244 -0.5329400566 -0.6988061968
H 1.5633724608 -0.9612947651 -1.559118374
