19
0
C 2.6552251591 0.0199569768 0.6209972848
C 1.7346183593 1.0062146542 0.0078313717
O 0.4612691631 0.7310999359 -0.1176274944
C 0.0809481435 -0.5127885553 -0.7476338789
C -1.0810234277 -0.1268015819 1.1877802187
C -1.3329908277 -0.6424508382 -0.1878305557
C -2.3450984765 0.1864152552 -0.9685655704
H 2.8601911303 -0.8624976221 0.0104582715
H 2.2032728844 -0.3396415226 1.5661711877
H 3.6090264385 0.4914529018 0.8545228715
H 0.22131526 -0.4059920642 -1.8307280852
H 1.9107484198 2.0653254021 0.1580660371
H 0.7106639966 -1.321290339 -0.375985119
H -1.6885513348 0.678665273 1.5803637143
H -0.6401614352 -0.7944966434 1.9199619063
H -1.6277742461 -1.6980401389 -0.2109913602
H -2.4310585501 -0.1568791867 -2.0019510651
H -3.3315151664 0.120941435 -0.5065298806
H -2.0497504903 1.2377996582 -0.9815258541
