14
0
C 1.7871434985 -0.0695616307 -0.057010226
C 0.6841196645 -0.9928620968 0.385192685
O 0.8341172855 -1.8290852743 1.2395794924
C -0.65281333 -0.8875752441 -0.345137219
O -0.9177608394 0.3694597152 -0.9043808992
C -1.4100547677 1.2965118746 0.0334398059
H 1.5333895181 0.9646477855 0.1840239434
H 1.9026411173 -0.1138110129 -1.1417383348
H 2.7143101873 -0.3467140687 0.4391354566
H -0.7044118233 1.4640593403 0.8574835267
H -1.4445289306 -1.21200936 0.3400985873
H -0.6117303885 -1.6045232777 -1.1713618842
H -2.3629368803 0.9586722763 0.4580976765
H -1.5652673113 2.2374429732 -0.4917396107
