17
0
C 2.9091208976 -1.2145368694 -0.2263318939
C 1.4215861721 -0.9939753452 -0.3640869547
O 1.1103164624 0.262012482 0.1999943133
C -0.1913535011 0.6514399745 0.1758513506
C -2.8125048371 1.6073472435 0.2129119844
C -1.2137286635 -0.0341908257 -0.336000854
O -2.515462761 0.3589753774 -0.3585051604
H 3.2028548224 -1.2025298771 0.8239571969
H 3.1880354473 -2.1795116273 -0.6525566234
H 3.4623598266 -0.4328767979 -0.7481231384
H 1.1193724955 -1.0091165354 -1.4197703996
H 0.8591784388 -1.781331077 0.1553449544
H -0.307018526 1.6219489353 0.6378522717
H -3.8854905882 1.7521309755 0.1046184973
H -2.5488905385 1.6314553877 1.2768680486
H -2.2847348405 2.4184096913 -0.3025568887
H -1.1024683067 -1.004374112 -0.7990957041
