17
0
O 2.8085815358 -0.2655796145 1.2248463282
C 1.8662571963 -0.3826016106 0.1720732406
C 0.5370721676 0.0823170134 0.6675676174
C -0.1827675643 1.0340167148 0.0886533763
C -1.5301756244 1.4915043031 0.5405285449
O -2.5632409837 -1.0854437882 -1.512890061
C -1.4507878818 -1.5080446526 -1.383694675
H 3.6264736278 -0.6853134534 0.9545814443
H 2.1658884044 0.2139788609 -0.6991610566
H 1.7913962994 -1.431672752 -0.150880955
H 0.1676218142 -0.4108583357 1.5640342448
H -1.5295819229 2.5664574125 0.7361911723
H 0.2238023328 1.525187359 -0.7942540006
H -2.2800317305 1.3030607348 -0.2324697832
H -1.8433206378 0.9744748956 1.4482443162
H -0.6398416612 -1.2511590964 -2.0914165859
H -1.1731743717 -2.1869619907 -0.5555041676
