14
0
O -1.975183306 0.5205833822 -0.3071998241
C -0.7252581334 0.1536517219 -0.8465460105
C 0.4209947072 1.1048705285 -0.5968588683
C 1.4837506128 0.414683181 -0.1799393667
C 1.1202955807 -1.0106785639 -0.0534424403
C -0.1597057553 -1.1717202185 -0.3940560851
H -1.8797001733 0.5676497652 0.6471159664
H -0.8815080903 0.0954380964 -1.9325787518
H -0.8978650511 0.3458262215 2.8391589937
H 0.3550140735 2.1674766317 -0.7830996443
H 2.4655666811 0.8146170693 0.0353294933
H 1.8023703921 -1.7882967472 0.2637594671
H -0.7291778469 -2.0904545413 -0.4041128391
H -0.4853546909 -0.0751425267 2.3805439096
