17
0
C -1.5585483559 -0.3546049952 0.9122518813
C -1.2465297222 0.1808181142 -0.4727638603
C -0.2506065353 1.3177321295 -0.5993584551
C 0.5922789902 0.6285309415 -1.3675935735
C 2.2482509697 -0.1892692858 1.1913398616
O 1.9384640674 -1.3282116453 1.393254273
C -0.2352457575 -0.6348303391 -1.3448445945
H -0.6454470105 -0.6048383533 1.4564220864
H -2.1185044862 0.3772789442 1.4991182563
H -2.1632638559 -1.2622554306 0.8495054378
H -2.1759164077 0.3819268621 -1.0148419733
H 1.5246951912 0.8792766211 -1.8601521542
H -0.2537840754 2.3325401884 -0.2172593449
H 3.0303875055 0.0826513672 0.4578624018
H 1.7729051555 0.6533737454 1.7264130568
H 0.2200708829 -1.4778289488 -0.8193022071
H -0.6155005561 -0.9805599154 -2.3086050918
