11
0
O 2.3948186264 0.4243083982 -0.3476762291
C 1.098199548 0.5951052576 0.0296195528
C 0.2788372179 -0.6390292615 0.0209977692
C -1.025220361 -0.6258345889 0.05108037
C -2.3189807321 -0.6191640324 0.0767292082
N 0.6395030457 1.7168220386 0.3671757003
H 2.544609877 -0.4741518084 -0.6503743154
H 0.7898397147 -1.5977239854 -0.0090344092
H -2.8541133504 -0.6197306964 1.0189154682
H -2.894221991 -0.5954946721 -0.8412160313
H 1.3555194049 2.4340153505 0.2836889161
