14
0
C 0.3798506011 -0.99922185 -0.1453290622
C -1.0377800835 -0.474439849 -0.2918767262
C -1.5911860015 0.204047219 0.9337016381
O -1.0858303175 0.1768412641 2.0210918736
C 1.3250503563 1.336998484 -0.3832430257
C 1.4682886353 0.0315697759 -0.2210978662
H 0.5680445373 -1.7519896601 -0.9170506363
H 0.4675042952 -1.5227298068 0.8115061358
H -1.1399141913 0.2087135714 -1.1412870366
H -1.7315905773 -1.2970483068 -0.5056606127
H -2.5567036408 0.7314312074 0.7793881459
H 2.186794284 1.9912025391 -0.4226428842
H 0.3553329339 1.8149087073 -0.4694144949
H 2.4745801689 -0.3694862954 -0.1281314484
