14
0
C -1.7279350039 -0.8111716451 -0.2603149946
C -0.2935119146 -0.4174255928 -0.5025852731
C -0.0053328654 1.0780044152 -0.4677487283
N 2.4989757837 -0.262152344 1.5323143538
C 1.5252996405 -0.0137972581 0.7874951451
O 1.2944318242 1.139259655 0.1056501618
O 0.5378440872 -0.8986732415 0.5568142089
H -2.0823194298 -0.4061244222 0.6886814917
H -1.826513482 -1.8960751904 -0.2334308303
H -2.3615898339 -0.4305237852 -1.0638647482
H 0.0735158706 -0.8534026246 -1.4383326725
H -0.7121419945 1.6139525546 0.1736915811
H 0.0201569218 1.5419480341 -1.4522882918
H 3.101720396 0.5489774451 1.6047345964
