16
0
N 0.142688344 -0.0576547458 0.9965968287
C 1.1385691046 -0.8127198371 -0.0267714679
O 1.8550434976 -0.0018537388 -0.6159805651
C 0.9380645817 -2.1435568082 0.0046443562
C -1.1328890696 0.3987975512 0.3868438049
C -0.8383337163 1.2124784486 -0.8703182638
O 0.1716825173 2.1573341323 -0.6330238772
H -0.0268115343 -0.6471304582 1.8046170405
H 0.6680433629 0.7637110908 1.2925957346
H 0.2077536872 -2.5984898218 0.6578260412
H 1.52462434 -2.7773126377 -0.6426689223
H -1.7285687045 -0.4838569212 0.1549063412
H -1.6575880107 1.0068034202 1.1268325576
H -0.5628185847 0.5369097529 -1.6851940348
H -1.7496301963 1.7393686592 -1.1608707376
H 1.0084143812 1.6740779137 -0.7669928364
