11
0
N 2.8744421743 1.1506568344 -0.3588132561
C 2.1612764145 0.3311882871 -0.7200456297
O -0.4087311605 -1.2417247991 -1.1356768604
C -0.926393476 -1.6889173975 -0.144623214
C -0.9181409773 1.4063685885 0.6820454228
O -1.2627537114 0.4680095356 1.345693816
H -0.8491166223 2.4206793945 1.110135335
H 1.4513657836 -0.4182736932 -1.0365256416
H -0.3381802365 -1.9957265286 0.7351724426
H -2.0159872365 -1.8386574492 -0.0812505056
H -0.6551649519 1.2950022277 -0.3857219091
