16
0
C -1.1677557824 1.6200915593 -0.4637335638
C -0.4744215902 0.2913477657 -0.5122941697
C -1.1196668939 -0.8725552189 -0.5076671584
O 0.4048668051 -1.1715051493 2.5036807982
N 0.9257978082 0.4228413775 -0.5637036917
C 1.8766115962 -0.5360883364 -0.4062469845
O 1.6818456673 -1.7132566086 -0.2157298258
H -0.8730845337 2.1786391531 0.4286639728
H -2.247130943 1.4882652292 -0.4458088969
H -0.9135641054 2.2260918351 -1.3380416611
H -0.3818876183 -0.9432477696 2.0021602173
H -2.2007071309 -0.8666819233 -0.4714797851
H -0.6071532564 -1.8202392253 -0.5539355041
H 0.9253038643 -1.6827735731 1.8759788427
H 1.2773157316 1.3613352093 -0.6504427134
H 2.8930163816 -0.1111813246 -0.4705308765
