14
0
O 1.3132104847 2.2627724029 0.5137112113
C 0.6856879782 1.2777304867 0.1975189189
C 1.2699439471 -0.11900624 0.1643018639
C 0.2571585867 -1.2194964677 0.4778683713
C -1.0238823745 -0.9876408091 -0.2701068946
C -1.3963490152 0.2505939023 -0.5679733955
N -0.6170089483 1.3593396846 -0.225769041
H 2.1256116294 -0.1333213944 0.8371015337
H 1.6548535154 -0.2538954171 -0.8527206064
H 0.6834717755 -2.1922069045 0.2272226883
H -1.6590654533 -1.8181628811 -0.5455954258
H 0.0520512408 -1.2440737021 1.5550701599
H -2.319726477 0.4810696357 -1.0830074355
H -0.9962168895 2.2876147038 -0.3035589484
