12
0
C 1.1164094562 -0.4273783005 -0.6366030267
C 0.3273724021 0.6674007957 0.0516688805
C -1.0867781565 0.2646170826 -0.1486606422
O -1.0660108088 -1.0036640514 -0.8411389597
C 0.1179123565 -1.4570691371 -1.1262739385
C -0.5138519836 0.2279538743 1.2229438893
H 1.8550604459 -0.9277984717 -0.0045615479
H 1.6604658228 -0.0725236242 -1.5176578574
H 0.6333437721 1.7009848721 -0.0273783495
H -1.9165590875 0.8878846719 -0.4461790544
H -0.3224283781 -0.7448527441 1.6607148428
H -0.8462248411 0.9863200327 1.9194477637
