14
0
C -1.6866782078 0.6671206636 -0.4340492958
C -0.4749167707 0.3121209284 0.419586378
C 0.6414538213 1.3292580538 0.2576485137
N 1.7293894183 0.606822218 0.0657892553
C 1.5995891449 -0.8150090608 0.0184490055
O 2.5201292499 -1.562760679 -0.1157245596
C 0.1225847492 -1.0768811916 0.1570361209
H -1.438030366 0.6266455499 -1.4972349005
H -2.025948629 1.6778718954 -0.2084910927
H -2.5075431362 -0.0291229911 -0.2530070899
H -0.7626654736 0.4072928018 1.4738148661
H 2.647324104 1.0144899921 -0.048952133
H -0.0496739324 -1.8127386236 0.941704652
H -0.2325849718 -1.513616557 -0.7793537201
