13
0
O -1.7885205395 -0.0592901 0.9869805914
C -0.8533827111 -1.0659369839 1.0753948467
C 0.1935921037 -0.1865542004 -0.8657204162
O -0.1608546503 -1.3212984605 -0.1513966939
C 0.6590666043 1.5708919565 0.7202643956
N 1.1093300375 0.6867245456 -0.1194210219
H -1.3019459266 0.7876283534 1.0451150926
H -0.1058072177 -0.8493342711 1.8497292815
H -1.3612789575 -2.001423668 1.3039590446
H 0.6933072792 -0.5289169019 -1.7715019957
H -0.6742745147 0.4229617089 -1.122566042
H 1.5228764569 2.0664386723 1.1911995991
H 2.0976800361 0.4895533492 -0.2498306817
