13
0
C -1.4667446288 0.2777071092 0.4023003414
C -0.4648679923 0.4636898151 -0.7488940394
C 1.5103511669 -1.2707950239 0.4691513355
C 0.8928523285 0.8533152806 -0.3181095471
O 1.697164611 -0.0060341082 0.211255572
H -2.4129968162 -0.1195126355 0.0307486949
H -1.0900956898 -0.4102035134 1.1610567196
H -1.6648304871 1.2319266515 0.891500308
H -0.8389480047 1.2224524424 -1.4385806071
H 2.3715377126 -1.7752060016 0.8696262352
H -0.3936854387 -0.4753613716 -1.3219689361
H 0.5610907031 -1.7395216978 0.2655811962
H 1.3302895357 1.8332540531 -0.429064273
