14
0
C 1.9747250343 -0.0495488976 0.1782009077
N 1.2513567486 -1.1612146125 0.8065084122
C 0.6506034708 -0.4610754831 -0.3061308408
C -1.4273644767 0.7116991416 -1.2628118307
C -1.8493702766 -0.1023403773 -0.0929246879
N -0.4702045828 0.420635874 -0.0836472359
H 2.8666865037 -0.32378437 -0.3704629166
H 2.0410206617 0.8950327235 0.7100156217
H 0.8389687517 -0.8836547558 1.6896699605
H 0.5159352901 -1.0117829316 -1.2279130279
H -1.738362545 1.7511887613 -1.111169759
H -1.8983556052 -1.1846411785 -0.1915600583
H -2.4426242388 0.2752769434 0.7406902696
H -0.3001837359 1.1391621627 0.6079611854
