12
0
C -0.060055594 1.2307569552 0.3108028048
C 1.0510342629 0.7932511325 -0.2950254364
C 0.8511028551 -0.6507791129 -0.6512888878
N 0.5716582996 -1.5696650951 0.4317429353
C -0.5979891757 -1.0325138382 -0.2659264981
C -1.1229617768 0.2014412405 0.2867532829
C -1.3982116688 1.4140490064 0.6989520162
H 1.9489139341 1.350223634 -0.5165099181
H 1.3396808287 -1.1014037044 -1.5084817754
H 0.713531701 -1.1185433844 1.3286589487
H -1.2230877293 -1.7597494316 -0.7661194581
H -2.147796937 2.121439598 1.021858986
