17
0
C -2.1847252324 -0.5896667425 1.7350022482
C -2.6232479655 0.6719683776 1.0993668399
C -1.7087420754 -0.262313814 0.3359541803
C -0.2977468441 0.1454050858 0.1731713363
C 3.2284190016 -0.6830743647 -1.3449142193
C 2.9906615873 0.607360477 -1.1770984884
O 0.3233128773 0.7702929431 0.9972680117
H -1.4334042159 -0.5232771661 2.5107925493
H -2.8931556004 -1.4009301763 1.8322412001
H -3.6415943381 0.7538036792 0.7446959685
H -2.1690643578 1.5905587716 1.4466199272
H -2.1336403279 -0.821850067 -0.487035369
H 0.1886787016 -0.1591229623 -0.7739206922
H 2.9821590203 -1.4080153288 -0.5767152592
H 3.6830007819 -1.0692027241 -2.2504990182
H 2.5317055144 0.9872577476 -0.2704655391
H 3.2418844734 1.331576264 -1.9442646758
