8
0
O -1.0757572115 1.3677947539 -0.0020977417
C -0.009069044 -1.1193939098 -0.023795065
C 0.7127751882 -0.0357002766 -0.2483417668
O 0.312041606 1.2644487123 -0.2534535936
H -1.0772393043 1.7449536963 0.8859362711
H -1.0677337412 -1.0758955652 0.1814953929
H 0.4808064438 -2.0811680368 -0.0608944778
H 1.7732710631 -0.0498573741 -0.4743580192
