16
0
C 1.0613012709 -1.1557582735 0.2963752365
C -0.23604243 -0.6356823931 0.895145158
N 0.0113646151 0.5685650992 1.6736881869
C 0.2144794039 1.7253037531 1.4375143624
O 0.4184217304 2.8688293875 1.3276966275
C -1.3414683049 -0.3767969528 -0.0971200672
C -1.2837622981 -0.5937326038 -1.4002574772
H 1.4647171841 -0.4500322464 -0.4320970266
H 0.898100395 -2.1147528652 -0.1973828028
H 1.8013596816 -1.2978295299 1.083226963
H -0.6028548075 -1.3742994189 1.6136078109
H 1.0692895488 2.34113789 -1.4482398743
H -2.2487746346 0.0309388545 0.3402947587
H -2.1306291842 -0.3737767371 -2.0381242479
H -0.4010195752 -0.9950261167 -1.8835351393
H 1.3396254047 2.0166051532 -2.0621134684
