12
0
O -2.3971732255 1.3631845941 -0.3275533176
C -1.8631490723 0.2850566772 0.2155610357
C -0.5326815581 -0.0986149459 0.0612211627
N 0.1707997099 0.7618027376 -0.7360497899
N 1.3492488676 0.2378320329 -0.7622583049
C 1.4486642399 -1.020965489 0.0395852696
N 0.1175199403 -1.1406529621 0.5507740309
H -1.704477733 1.8130937765 -0.8365240951
H 1.7646025997 -1.8514878651 -0.6170951981
H -2.5553850687 -0.2988471155 0.8091865314
H 2.0697062934 0.688731021 -1.3015653637
H 2.2278100065 -0.9035074616 0.8132450391
