12
0
C -1.3266248616 -1.2527069615 0.3654137574
C -0.2674658725 -0.2413210048 0.0944657734
C 0.0968845355 2.0826806112 0.0566642582
O -0.6093892122 1.0170364039 0.2457297079
C 1.0317678731 -0.5269113918 -0.3316572251
C 2.166322921 -0.7104086023 -0.6994004971
H -0.9803129592 -2.012930216 1.0694551517
H -1.6457770331 -1.7678455588 -0.5456155822
H -2.1974523809 -0.7604104109 0.7983852483
H 1.1200486594 1.9989667152 -0.2796062221
H -0.4196085132 3.0047246708 0.260596447
H 3.1641308436 -0.8939882549 -1.0205428174
