13
0
C -1.944148108 0.3354174838 -0.0560306209
O -1.1535921142 -0.847129878 -0.1200558733
C 0.1726263308 -0.7094397805 -0.0312450435
O 0.5539403448 0.2384642188 0.8896417801
C 1.0295109912 -1.4651648568 -0.7029514662
C 1.5049920743 1.1417968405 0.53670967
O 1.9533198929 1.9105584069 1.3187199218
H -1.6518467954 1.0417470002 -0.8380501904
H -2.9682575593 0.014042993 -0.2272991059
H -1.8662751152 0.8137575046 0.9202778127
H 0.6592447366 -2.168701374 -1.4323199969
H 2.0869575209 -1.4286769373 -0.4891506334
H 1.7771938003 1.0708723788 -0.5279642545
