14
0
C 1.8660527502 -0.947263706 -0.1827945327
C 2.0568754901 -2.2197615523 -0.2750604192
C 0.9025380918 -0.1691776278 0.6811121827
C -0.0722035057 0.6403727282 -0.1388240048
C -1.4369506391 0.9265418623 0.4103763126
C -1.2699038711 -0.0302448394 -0.7337443386
H 2.5288308164 -0.4229693364 -0.8815996061
H 0.357085262 -0.8661870165 1.3203264263
H 1.4780108849 0.4842954483 1.3415998508
H 0.3821035434 1.4265811766 -0.7325803364
H -1.87740354 1.8945763669 0.2119670157
H -1.6847581376 0.5157045438 1.3813485321
H -1.3964637587 -1.0876263031 -0.5346532333
H -1.5992443864 0.2809142556 -1.715845849
