13
0
N -1.0486638131 0.3512161885 -0.9974263521
C 0.0220937558 -0.4957630759 -0.9742236995
O -1.0142160548 0.8229599605 1.9222280755
C 0.5821437804 -0.7871060637 0.4007097652
O 1.0347682367 0.3923370495 1.0889988146
C 0.1585023227 1.0609219851 1.8235962457
N 0.5916443062 -1.0608788931 -1.9614483518
H -1.5359389724 0.5016263198 -1.8615700652
H -1.5346238355 0.5553016073 -0.1399450165
H 1.4618659603 -1.4089626675 0.275138338
H -0.1620745151 -1.2974248985 1.0156910425
H 0.6670630818 1.8835052594 2.3418931156
H 0.1201817472 -0.8525807717 -2.8395599118
