14
0
C 2.6623094768 0.3886373494 1.0687849512
O 1.4568844138 0.7480276141 0.7951711596
C 0.4944206503 -0.1119846675 0.1509881586
C -0.8652173058 -0.2212982959 0.8421548771
C -1.5126650091 -0.1440021525 -0.5592026628
C -0.1954848592 0.4725120369 -1.0823127915
H 2.7737614616 -0.675493329 0.7140737905
H 0.9772063963 -1.0769183609 -0.0283116256
H -1.0606567374 0.681774242 1.421467147
H -1.0494037673 -1.0964921938 1.4631844973
H -2.4181650934 0.4513825695 -0.6580633284
H -1.6945835428 -1.1332363323 -0.9795957036
H -0.2116193731 1.5610888656 -1.0176836879
H 0.1766142892 0.1722236542 -2.0605377813
