18
0
C -1.7743728072 0.5107041995 -0.4359482954
C -1.2962622552 -0.8891931404 -0.1091670065
C 0.2058816192 -0.9728508202 -0.3342213691
C 0.9260666219 0.0379158474 0.5596638364
C 2.4116140377 0.1432057362 0.2246018388
C 0.3248482192 1.4229215626 0.6368902557
N -0.8896397459 1.5239077121 0.1673595556
H -1.3024595855 2.4441111006 0.2128259485
H -1.7956522913 0.6664213275 -1.5194932838
H -2.7856449355 0.6834942742 -0.0615612854
H -1.5241474813 -1.1180909906 0.9366982552
H -1.8400863845 -1.6107453909 -0.7220258927
H 0.5724129862 -1.9840155222 -0.1389143948
H 0.4315466145 -0.7569597355 -1.3853332123
H 0.8532054335 -0.3097716173 1.6018515116
H 2.8957183664 -0.8357632069 0.2673656347
H 2.5508510542 0.5422564472 -0.7834102088
H 2.9129535338 0.8175452168 0.9183901122
