13
0
O 1.1013450288 2.0993752604 0.3024050073
C 0.5365272897 1.0353713914 0.2584473807
C 1.3470705879 -0.1909754677 -0.1503319619
O 0.6104143447 -1.1711397855 -0.9058984422
C 0.1065977108 -0.7386801013 -2.0179810549
C -1.4604636139 -0.2109447071 1.0826882707
C -0.8776724112 0.9137216858 0.6902093684
H 1.7083169215 -0.7045402762 0.7428398268
H 2.1911407988 0.1527658803 -0.7431624773
H -0.403773969 -1.6413632278 -2.4207979139
H -0.9591756662 -1.1706082088 1.0432630811
H -2.4722856638 -0.2073386984 1.4688312588
H -1.393651358 1.8656042548 0.7475956564
