11
0
O -0.6905093064 0.934090252 -0.9745008277
C -0.5467550713 -0.4925128958 -0.7410918968
C -0.3452202141 -0.4790409758 0.8199129828
C 0.7314190877 0.7201429418 0.8455997336
C 0.6554123597 0.6866273687 -0.6575961197
N 0.9167507005 -0.4661533143 -1.1919731773
H -1.2528294748 -1.1544642205 -1.2394617571
H 0.1173124664 -1.3955556475 1.185043897
H -1.2606887402 -0.2748892335 1.3766614289
H 1.6919229997 0.4122529148 1.2444047361
H 0.3604591925 1.6282298101 1.3109560003
