11
0
O 2.2613755073 -0.7004435079 -0.1716064707
C 1.1173807313 -0.3274003565 -0.083158452
N -0.003126707 -1.1009530843 -0.0939761347
C -1.2153560078 -0.3392843362 0.1182681057
C -0.8556062118 1.0911099436 0.2804469171
C 0.5989857734 1.1051652488 0.0431826678
H 0.0522372794 -2.1019218806 -0.1593150639
H -1.7766483758 -0.6462693847 1.0105668748
H -1.9308450353 -0.4032251592 -0.7139322262
H 0.6952482989 1.6116646304 -0.931962222
H 1.1677157473 1.7389888864 0.7256040041
