15
0
C -0.8767026355 1.5109119742 -0.7251193494
C -1.0895334611 0.2942169483 -0.265681989
C -1.218857029 -1.1343044488 -0.5397419394
C -1.4046250878 -0.5708204114 0.8677309167
O 1.8817012924 -1.1796100962 0.6923000848
C 2.6040180245 -0.2703095685 0.3942074175
O 2.2155085898 0.8876782888 -0.1218302278
H -0.6883607627 1.6884882143 -1.7784570125
H 1.2423233362 0.8848457424 -0.2219696617
H -0.9146436436 2.3743370726 -0.069822766
H -2.0960068691 -1.4741000931 -1.0777541174
H -0.3144654472 -1.7047257219 -0.7143196908
H -2.4063410539 -0.5310255853 1.2792478676
H -0.6169605616 -0.7850079875 1.5801236935
H 3.6958303083 -0.287090328 0.5144617737
