18
0
C -1.8185347563 -0.5541550614 -1.0618086381
C -1.2848092936 0.4113030791 -0.0123759067
C 0.2308130151 0.363637139 0.1566577576
C 0.7423190788 1.4517651812 1.0928769566
N 0.6277003464 -0.9625227521 0.6431087922
C 1.7110314042 -1.6674941921 0.3651480579
O 2.4786684526 -0.9697589885 -0.4958122924
H -1.3930455665 -0.3354219416 -2.0438449054
H -1.5685747861 -1.5889540617 -0.8206434821
H -2.9040903388 -0.4825346159 -1.1450149781
H -1.5617912964 1.435521897 -0.2765172786
H -1.7567455799 0.2150542973 0.9586858988
H 0.6995369497 0.4869969324 -0.8212094394
H 0.4901095763 2.4417652625 0.7074111541
H 0.2957674936 1.3508524206 2.085554746
H 1.8254693027 1.3876143727 1.1973824746
H 0.0061377432 -1.4001538262 1.3029959328
H 3.2402582549 -1.5193831426 -0.6812288499
