7
0
C -0.5724310272 -0.0328934079 -0.1419932374
C 0.7845970048 -0.1396753889 -0.7172994433
O 0.3371270449 0.1689161324 0.9810768535
H -1.1919400095 -0.900079309 0.0837526241
H -1.1687151449 0.8507479952 -0.3641596707
H 1.0825783794 -1.1923256022 -0.5987902184
H 0.6043847523 1.0931575802 0.9954620921
