15
0
C 2.4292831215 0.1822167408 0.1489070748
N 1.137066391 -0.1429751741 0.1868012623
C 0.5226633464 -1.2862693548 0.4956309619
C -0.8992827487 -1.1645635307 0.2735321797
C -1.1813273042 0.0744338251 -0.1504419651
N -2.3984178002 0.7329570495 -0.3484246822
C 0.1088037227 0.8460486413 -0.2006411834
H 0.3516300627 1.2439503558 -1.186073265
H 2.6954173173 1.2002864138 -0.0756178178
H 3.1604575134 -0.5659164371 0.405001584
H 1.0866580394 -2.1512038427 0.8021622319
H -1.6099797521 -1.9576589306 0.4582880034
H -3.1932082599 0.1196172095 -0.2557950359
H -2.4529441817 1.2323191582 -1.2247545556
H 0.1055385324 1.664817876 0.5203162069
