13
0
C -1.1336312531 -0.9506215543 -0.1299808238
O -0.131178536 -1.8406136545 0.3706849301
C 0.7564122864 -0.7526473107 0.6669429901
C 1.1094900528 1.9048688129 -0.9307053722
N 0.0043094243 1.2466343155 -0.7333101763
C -0.3213411361 0.2738820924 0.3074959421
H -2.0980477547 -1.0992104898 0.3602890143
H -1.2551003715 -1.0386355554 -1.2156025076
H 1.0876312044 -0.7675371533 1.7067338378
H 1.625809228 -0.7368643158 0.0036090004
H 1.824255731 1.5652237427 -0.1531035634
H -0.7681707673 1.4474699589 -1.3574757157
H -0.7436161082 0.7933501115 1.1678194442
