14
0
C -0.8470673935 -1.1849060691 1.438700489
N -0.6966152026 -0.2060043638 0.3889718435
C -0.404234119 1.6432981443 -1.481408263
C 0.4560299947 -0.0508444796 -0.1071399325
O 0.7007209355 0.8497547411 -1.0756995486
N 1.6206588047 -0.6898407898 0.2455365773
H -0.2011551607 -0.9756001823 2.3015352855
H -1.8780859896 -1.1808739677 1.7906414823
H -0.6291072465 -2.2072701454 1.096689554
H -0.0163130611 2.3208388644 -2.2390387511
H -1.1972577934 1.0196970325 -1.8955912182
H -0.8081423828 2.2024037263 -0.6369448945
H 2.3787414366 -0.6090666679 -0.4087792159
H 1.5283421779 -1.5833808432 0.693840592
