12
0
N -2.1965188539 0.0571028031 -0.2211719297
C -0.9364552899 -0.0484426602 -0.1026902944
C -0.0470898838 1.1676775567 0.1171681203
N 1.2670024218 0.5951216059 0.3885779681
C 1.2091233738 -0.7501884791 0.1275250554
C -0.035045158 -1.1970060731 -0.1213990134
H -0.408967681 1.7736456228 0.9478877105
H -2.6219378534 -0.8570230454 -0.35658178
H -0.0385681624 1.7834907601 -0.7863570468
H 2.0924845349 1.1072669102 0.1338795497
H 2.1201101352 -1.333331652 0.1702694055
H -0.3261335834 -2.2243533489 -0.2734127449
