19
0
C 2.359671162 2.2937846086 0.1742620872
C 0.8031838228 -1.402593336 -0.2864847573
C -0.4728506164 -1.2367287873 0.0359415797
C -1.5128494834 -2.2946108952 -0.1903398491
C -0.9524669704 0.0594534883 0.6463336074
C -1.5576290371 0.973842185 -0.391180337
O -1.3162818931 2.1456594444 -0.4794017711
H 2.8922659162 3.2370979216 0.2853473407
H 2.7486689859 1.7628644566 -0.6940289059
H 2.5107515762 1.6894837345 1.0688146272
H 1.5368034655 -0.6252855988 -0.1070450048
H 1.1572937526 -2.3228269417 -0.7362299187
H -1.0938084791 -3.1668947886 -0.6906737338
H -1.9431139049 -2.6175483991 0.762082453
H -2.3403582708 -1.9180193059 -0.7983983624
H -0.1469485335 0.5982962799 1.1444753937
H -1.7338956737 -0.1455989977 1.388332881
H -2.2632223464 0.4950117789 -1.1020851419
H 1.2972825274 2.4905401523 0.034756812
