13
0
O 1.2439747478 3.3509310872 0.0739813619
C 1.2468183548 1.0076499895 0.3899023255
N 1.0694366052 -0.3177471667 0.5388221176
C 0.3593703795 -1.0484030991 -0.5081239565
C -1.1181216076 -0.7869688004 -0.5269911794
C -1.7979039989 -0.1158063108 0.3866010751
N 1.221327806 2.1484645719 0.2326382075
H 1.8622412144 -0.7959063939 0.9322062211
H 0.535722879 -2.1113329782 -0.3233383793
H 0.7781466943 -0.8266254572 -1.4971770974
H -1.6332385084 -1.2010758243 -1.3892676819
H -2.8662942325 0.0274927254 0.2886771715
H -1.3175223339 0.3153606568 1.2565918143
