15
0
C -2.6297541051 -0.5404530489 -0.2313232314
N -1.4354489743 0.1494315182 0.1909248643
C -0.3264080434 -0.2362911967 -0.2619700436
C 0.9458088451 0.445294629 0.100038531
C 2.2098327075 -0.3434634583 -0.126335648
C 0.8788880929 1.5840129055 0.9912184794
N 0.9900228656 1.9463966932 -0.1929918471
H -3.2980852356 0.1707948527 -0.7208863501
H -3.1539652952 -0.9197653316 0.6481678592
H -2.4337455063 -1.3740363444 -0.9191075619
H -0.2442426792 -1.0941300802 -0.9465307357
H 3.0847819891 0.240797637 0.1560558772
H 2.311993819 -0.6182964197 -1.1794535617
H 2.2087801884 -1.2644474174 0.4621775281
H 0.7813903314 2.0118780613 1.9791778401
