13
0
C -2.3252415518 1.1357362951 0.4985676629
C 0.4825684 -1.2664470177 -1.0252289316
C 1.7076878397 -1.1591116456 -0.527816084
C 2.1095793377 -0.0006378093 0.3073165701
O 1.3797491615 0.9079292987 0.6094798868
H -2.5565760401 1.3421429436 -0.5462141546
H -2.9103889197 1.7997829892 1.133080488
H -2.5807237505 0.1018327803 0.729993399
H 0.1882524351 -2.1104706607 -1.6364527414
H -0.2581392272 -0.5002208426 -0.8259822341
H -1.2631508726 1.2989507397 0.6773147874
H 2.4640308903 -1.9140423955 -0.7158620191
H 3.1607602977 -0.0092586751 0.6571363704
