14
0
C 1.9749015771 0.6991711096 0.4956895478
C 0.7506382979 0.2278457211 0.6851074357
O 0.5630784246 -0.9176203707 1.4055848877
C -1.2431881831 -0.9439908328 -1.1912038624
O -0.8683610074 0.4093959766 -1.1558053821
C -0.4841823145 0.8806316176 0.1130904256
H -0.3944227732 -1.6124891854 -1.0107525836
H 2.8394996909 0.1956130441 0.9065767762
H 2.1230705518 1.5938946285 -0.090792534
H -0.3740032585 -1.0615407651 1.5496008053
H -2.0297271007 -1.1586113633 -0.4519358381
H -1.6409274645 -1.1402367998 -2.1856532728
H -1.3205483272 0.7634410826 0.8244033235
H -0.3007561133 1.9466701371 -0.010602729
