19
0
C 2.5725061699 0.2746706603 0.0281979452
C 1.2793961899 -0.3894414649 0.4790174666
C 0.2533702933 0.6192838187 0.9953650225
C -1.0138358491 -0.0180318535 1.4746065512
C -1.6177089121 -0.7389222785 -1.8405932927
O -0.8559561315 0.0562647895 -2.3106671342
C -2.238270393 0.341177526 1.1147461719
H 2.3830950312 0.9802246184 -0.7836279303
H 3.039967028 0.8256873812 0.8484014143
H 3.2935156931 -0.4614199572 -0.3312373059
H 1.4914580483 -1.1229276826 1.2641455001
H 0.8478003651 -0.9437073793 -0.3585609866
H 0.0257873466 1.3499334806 0.2139015178
H 0.7009831057 1.1766344807 1.8274674849
H -0.8954928094 -0.8361233833 2.1837235973
H -2.7132586556 -0.5882019571 -1.867914538
H -1.2697930852 -1.6701013655 -1.3560417615
H -2.4053817148 1.1575167007 0.4188187202
H -3.1159477204 -0.1518431343 1.5155945572
