13
0
C -0.9889464635 1.2564368863 -0.0465738997
C -1.0656760915 0.0307799679 -0.8924282872
N -1.1001127203 -1.1746189188 -0.5006047273
O -1.0438866485 -1.2769636535 0.8888409547
C 2.3103603938 -0.3735159965 0.2870334288
O 2.4384081182 0.7705792305 -0.0482073379
H -1.440497203 2.1016962188 -0.5647081984
H -1.4854335284 1.1054592198 0.9104289097
H 0.0589839017 1.5049511687 0.1472651729
H -1.1668226187 -2.2168256163 1.0364118604
H 3.1071370574 -1.119742772 0.1048503665
H 1.3955167291 -0.7391437825 0.7872554098
H -1.0869509263 0.1252960475 -1.9739306523
