14
0
C -1.928670316 1.3464659426 -0.2798105344
C -1.3012457502 -0.001673933 0.0655671647
C 0.0929642239 0.1426145078 0.6131574924
O 2.6897788518 -2.1800654682 -0.078146795
C 1.1573112806 -0.4096767307 0.1063033645
C 2.2216444869 -0.9396886075 -0.4265721166
H -1.960746596 2.0011649605 0.5943210581
H -2.9512297936 1.2215870623 -0.6402987286
H -1.3553672384 1.8562397277 -1.0565272876
H -1.2775823012 -0.6480298673 -0.8135099866
H -1.9187342107 -0.5069332292 0.8156130942
H 0.1998311664 0.764795105 1.5018171277
H 3.4839039343 -2.363164456 -0.5803678437
H 2.7875312625 -0.4024630139 -1.1823520091
