12
0
C -1.6623982379 0.5291829483 0.2329603259
C -0.3198302655 -0.0517714592 -0.0126693698
C 0.0589828793 -1.2422401245 -0.4749095879
O 1.4324923984 -1.319247723 -0.5301342635
C 1.9491790366 -0.1338357108 -0.0875337382
O 3.116926419 0.1182382071 -0.0140371985
N 0.8646563306 0.6421138719 0.2302862671
H -1.7890089238 0.8015010606 1.2832343823
H -1.8215496808 1.4250721689 -0.3712605289
H -2.433122504 -0.1957485359 -0.0240393366
H -0.496256948 -2.1062697241 -0.7933890087
H 0.9600564962 1.5758180206 0.5823490566
