13
0
C -2.0008028675 -0.7179656252 0.8041583783
C 0.7342476877 0.6897763769 -1.2311916412
O 0.0684100066 1.0132416842 -2.1635247475
C 1.5011150792 -0.3621106645 -0.5630955373
C 1.3387669362 1.0664007118 0.0476069768
H -1.2360493603 -0.5988839306 1.5715355383
H -1.8794510187 -1.6817278893 0.3118036275
H -2.9832024801 -0.6728829893 1.2711965028
H -1.9150864899 0.0786482042 0.0662108283
H 0.9605593306 -1.173462456 -0.0895422472
H 2.4738088917 -0.6302419647 -0.9585478695
H 0.695597431 1.1719047175 0.9133635334
H 2.2082308536 1.713259825 0.0409046573
