18
0
C -1.5496565026 0.5367683453 -0.1486697461
C -1.4512681747 -0.975434171 0.0733393097
C 0.0191133735 -1.2871264835 -0.2189099032
C 0.7762306473 -0.1042589348 0.3918164765
C 2.1878926048 0.1214395937 -0.1168882009
C -0.1609021584 1.0696096059 0.166823158
N 0.2230719366 2.2710097616 0.2270623888
H -2.3166358922 1.0282074493 0.4520145961
H -0.5495552538 2.9127728858 0.0563913993
H -1.7684252947 0.7589445747 -1.1980108134
H -1.6797967872 -1.2167179269 1.1152159038
H -2.1411598847 -1.5438940482 -0.5508215153
H 0.3426121362 -2.2496962944 0.1796333489
H 0.1886477897 -1.3082503231 -1.3013035118
H 0.8091587448 -0.2521376588 1.4801758271
H 2.8306852302 -0.7282307735 0.1220606962
H 2.1880417133 0.2551062013 -1.2013345257
H 2.6151487719 1.0203101966 0.326910112
