14
0
C -1.5375715162 0.32133073 -1.0372465481
C -0.3674186815 -0.0326155393 -0.5188235401
C 0.5689098478 0.9887708107 0.0065287598
N 1.609736513 0.2704528017 0.4152826972
C 1.5520997573 -1.1452971342 0.2622433466
O 2.4228488809 -1.8922285295 0.5913579425
C 0.2077337572 -1.4180069752 -0.3706891751
H -2.2445087589 -0.400726194 -1.4312429915
H -1.8060102154 1.3700751702 -1.0708529207
H -1.7343415872 2.9418155899 1.9195108016
H -1.1906745617 2.7383146148 1.4488539699
H 2.4329617932 0.6820869227 0.8315610777
H -0.3742392789 -2.0681355137 0.2845598894
H 0.3497880504 -1.943322754 -1.3161743091
