14
0
C -1.5906256531 0.1456362997 -0.5659971463
C -0.3341241466 -0.107057397 0.2501976227
C -0.2238841122 -1.4966392702 0.8025260157
O 0.7907895989 -1.9940347636 1.2149772724
C 0.9486735656 0.6031765998 -0.0205359651
N 1.9236930464 0.6742926709 -0.9578878756
C 0.3334814478 1.0073086016 1.0354648113
H -2.4859852605 0.0853879442 0.0585904751
H -1.7052303085 -0.5802367961 -1.3759438508
H -1.5577077896 1.1410173292 -1.0086906136
H -1.1721477018 -2.0787586103 0.8115615376
H 2.1052859957 -0.1797277971 -1.4567115992
H 2.7554895124 1.1741978893 -0.691520572
H 0.2283438058 1.6284902997 1.9038108878
