12
0
C -1.7064711054 -0.4415325036 0.2690595525
N -0.4027291412 0.0689184217 -0.5009368812
C 0.6564893565 -0.9042816121 -0.4876308122
C 1.6846565186 -0.3545641251 0.1533239991
N 1.3946219265 0.9671936336 0.5618604326
C 0.2182814204 1.200360522 0.1398847733
H -0.7396002169 0.2712772591 -1.4383208204
H -1.3126769889 -0.6281777994 1.2789428559
H -2.3039705008 0.4813151058 0.3290353039
H 0.4699494833 -1.8876251222 -0.8830226827
H 2.6340621881 -0.8043277395 0.3962824448
H -0.35581994 2.1064489597 0.2693788346
