16
0
C -0.7700117236 1.9141768956 -0.3097768511
C -0.4167559901 0.47934204 -0.1331931163
C 0.460230788 -0.205480689 -1.0623080367
C 1.7381980282 -0.665028822 -0.2641650046
C 1.4210570223 -1.2309323603 0.89361048
C -0.0427330728 -1.3482528248 1.350744539
N -0.7115659863 -0.1148292692 0.9992598502
H 0.1558793621 2.4969141192 -0.2857674478
H -1.43462062 2.2842937588 0.4715544693
H -1.2318803929 2.0796180548 -1.283892578
H 0.6804025972 0.409974179 -1.9317801025
H 0.0177154378 -1.1473212677 -1.4024896826
H 2.1539474538 -1.6824137686 1.5548773805
H -0.5187711003 -2.1814085255 0.8195989492
H -0.1739247284 -1.5200752651 2.4196679401
H -1.1531330751 0.4221747447 1.7270232113
