14
0
C 2.9716065432 0.3212404924 -0.4526235894
C 1.6740488968 0.781601982 0.0357409373
C 0.6136155849 1.165356242 0.4372163588
C -1.7018160221 -1.1523335025 -0.1901283963
C -2.8349362905 -0.6495989846 0.279900375
O -0.5217543587 1.6289361476 0.8911227149
H 3.6788370495 0.1859445155 0.3675319482
H 2.873689695 -0.6356683781 -0.9684363087
H 3.4021744078 1.0354856946 -1.1566415995
H -1.370740804 -0.9605286034 -1.2044138553
H -1.0581298051 -1.7750375148 0.4205985591
H -3.4813130714 -0.0337780309 -0.3357213051
H -3.1680023433 -0.8496607198 1.292332919
H -1.2131804822 0.96523666 0.7340752421
