15
0
C 2.0599895264 0.1772969668 0.0002788638
C 0.5722401735 0.2281260637 0.0991994368
O -0.093488128 1.0011959983 -1.0031972299
C -1.3223927784 0.9672728868 -0.1799918021
C -1.6563374605 -0.4932097003 0.0087529358
C -0.2403499348 -1.0459549035 0.2197885285
C -0.1318820022 1.4629341357 0.5773555401
H 2.4645797066 1.1765251029 -0.1512555433
H 2.4589725901 -0.2176365107 0.9366549757
H 2.3827884994 -0.4791522777 -0.8100459968
H -2.0705217031 1.6724105232 -0.5275383421
H -2.3074836003 -0.62725848 0.8736912944
H -2.1545013266 -0.9194722733 -0.86340851
H 0.04635308 -1.7841116228 -0.5316843216
H -0.094318642 -1.4905889092 1.2057211706
