16
0
C -1.1331071249 1.478630355 -0.0418673291
C -0.2106557967 0.4159082892 0.525276933
C -0.9006285653 -0.9328504094 0.614422708
O -0.5389604421 -1.8004378651 1.3711189721
N 0.9757338929 0.2930515828 -0.3188918349
C 1.9725700313 -0.3664216514 0.0982709258
O 2.1154053579 -1.080818461 1.2163544916
H -0.6161490777 2.4368656503 -0.073781133
H -2.0330022687 1.5878588298 0.567752244
H -1.4258786873 1.2214589314 -1.0614402063
H 0.0786712948 0.6785366537 1.5524296069
H -1.7483989268 -1.1112048793 -0.0736402475
H -0.6034967129 -1.0099293845 -3.0437028065
H 1.2480269534 -1.2995757728 1.6058289462
H -0.1551372239 -0.6046943649 -2.6044958013
H 2.8839832962 -0.3714935037 -0.4944974688
