14
0
O -1.7070395153 -0.7927450294 0.7091934884
C -0.9711562951 0.1301031015 -0.0802649304
C -0.1147140711 1.0367837574 0.7963377587
O 0.7450009296 0.2954218056 1.6402270606
C 2.2103829939 -0.1156039416 -1.5415397095
N 1.0553712856 -0.4275514376 -1.3132668917
C -0.1872188753 -0.601894972 -1.1375506825
H -1.0958638493 -1.479534921 0.988927525
H -1.7301130812 0.7487408337 -0.5709916172
H 0.514327949 1.6758056124 0.1732461309
H -0.7775203295 1.6803385903 1.3824144151
H 2.9739103475 -0.6824010408 -1.0025487883
H -0.7030017256 -1.3131161947 -1.7735068803
H 0.2506122369 0.041348836 2.4205251214
