14
0
C -2.49949373 0.1698771409 -0.7843034866
C -1.1626639966 0.3597518257 -0.1501511579
O -0.4099331921 1.2644389863 -0.4180452348
C 2.2192618409 -0.9933547303 -0.1061444012
C 2.2100308279 -0.4310271852 1.0980469302
O 1.5919082285 0.7072226791 1.4613658113
H -2.5238685058 -0.8052872235 -1.2778781662
H -3.2681267964 0.148845504 -0.0075563121
H -2.7074338491 0.9602682644 -1.5022716405
H -0.868182246 -0.3939308199 0.6055151183
H 1.0672803006 1.0574175898 0.7191349733
H 1.7236003716 -0.5423569626 -0.9575247655
H 2.7592047085 -1.9165771349 -0.2581909987
H 2.7336790384 -0.8770149337 1.9374803303
