11
0
C 1.9860597409 0.8014693311 -0.9713110561
C 0.8602635336 0.4235311823 -0.3810772058
N -1.603012665 -1.4903698896 0.7453141115
C -0.1019043588 1.3658756931 0.1096735834
N -0.8953239527 2.0914261727 0.5156229842
H 2.2337053145 1.8458777868 -1.114075628
H -1.6066221 -2.128330958 1.5300683747
H 2.6924425767 0.0633707365 -1.3285578227
H 0.5814708964 -0.6137060863 -0.2259947021
H -2.2700252897 -1.8387184322 0.069423334
H -1.9527686956 -0.5998285362 1.078079027
