15
0
C -2.3042234761 -0.1055516578 -0.4645033654
N -0.8821260415 0.1094531578 -0.3681303297
C 0.0737863435 -0.8213251837 -0.1676353387
C 1.3104253118 -0.2214892972 0.2440202262
C 2.5123723138 -0.8191092274 0.5180366242
C 0.9295000505 1.159543627 0.2818436983
N -0.3876451154 1.295144276 -0.0213922843
H -2.7711615467 0.7411078856 -0.9678147873
H -2.7561092571 -0.241510585 0.5208712937
H -2.4721587072 -0.9967504734 -1.065995175
H -0.1742993991 -1.8629231191 -0.2930030422
H -0.8449690054 2.1285447904 -0.3483424037
H 2.6265886647 -1.8902065791 0.4316460276
H 3.3664700221 -0.2340841049 0.8256590676
H 1.5202368419 2.0365184906 0.4851187889
