11
0
O 1.2165979551 -1.0760236135 -1.3868569054
C 1.1578308505 0.3415937474 0.6198988108
C 0.568173639 -0.7627060617 -0.1982527455
N -0.8434993659 -0.3839691856 -0.4462255046
C -1.0972104216 0.6634293281 0.2999378587
C 0.0620935561 1.1176713884 0.9598449366
H 2.0154870959 -0.5407118972 -1.3960585969
H 0.5189628211 -1.6415456126 0.4663828765
H -1.5234014066 -0.9209957917 -0.9565293515
H -2.1017583983 1.0737460309 0.342474601
H 0.0668716747 2.0051406674 1.5782620204
