15
0
C 1.9544930187 0.2295557262 -0.1157538202
C 0.4555938902 0.3450955707 -0.2254301295
O 0.0956922285 1.0815164843 -1.3599967941
C -1.6076529556 -0.0618580996 1.1002399294
C -1.7881271079 -0.685571938 -0.2637440463
C -0.3536750755 -0.8784283499 0.0831479993
C -0.3104804169 0.504652569 1.0538815903
H 2.3929701626 1.2165849249 0.0372440658
H 2.2440734317 -0.4169442564 0.7137951625
H 2.3637063423 -0.1829629169 -1.0386554022
H -0.4821517897 1.798119097 -1.0940527998
H -2.4523685576 -1.5425950662 -0.2553944638
H -1.9014726333 -0.078258342 -1.1578823377
H 0.0866937767 -1.7890094992 0.462179075
H 0.2273216857 0.7131600961 1.9759179712
