17
0
C -1.7983261863 -0.3855697129 -0.4872743984
C -1.0735861791 0.3869999639 0.6080615933
C 1.6916813457 -0.992955271 0.8009725908
O 2.0842506612 -2.1129950408 0.2445520239
C 1.2695927566 -0.0640661842 -0.2834756836
C 0.2718864861 0.9795901489 0.1914346244
O 0.1354401362 1.9107846536 -0.8738799287
H -1.8924688389 0.2137886432 -1.3942848064
H -2.8008526468 -0.6681062048 -0.1624890291
H -1.2707378152 -1.3044871453 -0.7504548431
H -1.7086397823 1.2084542107 0.9595237764
H -0.9003863239 -0.2537302393 1.478348858
H 2.3955509914 -2.7012955294 0.9403709576
H 2.1990619665 0.4599108954 -0.551711305
H 0.9280401553 -0.5754753507 -1.1904007314
H 0.7063212078 1.4762712604 1.0685281537
H -0.4833209341 2.5922129022 -0.6048558525
