10
0
O 0.3682361069 -1.1668092812 -0.6654158766
C 1.0926092642 -0.1809403834 -0.0294147041
N 0.4030618916 0.2614131473 1.2145005696
C 0.3322208204 1.0761284282 -0.0111749271
N -1.0563564935 0.688311697 -0.3133958365
C -0.897545812 -0.7502583978 -0.3728011961
N -1.0025212652 -0.1606771457 0.9493183782
H 2.1632245009 -0.3016402623 -0.0054125477
H 0.6685535591 2.0969128271 -0.1106816573
H -1.7014895723 -1.3665616292 -0.7450262025
