10
0
O -3.1973356584 -0.3253599091 0.4175427832
C -2.3429603955 -0.5920222103 1.0960721196
C 0.6718607958 -1.3554128155 -1.0195982786
C 0.8822985004 -0.2742206316 -0.3390505689
C 1.1170806348 0.8072609526 0.352642799
C -0.620533727 2.632582354 0.7340668558
N 0.1600613601 1.7872912192 0.5446802803
H 0.8684926196 -1.3920200208 -2.0851405047
H 0.286823917 -2.2485207646 -0.5404709519
H 2.0768249532 0.9901948259 0.8194324659
