16
0
C 1.9978496958 -0.2296117012 -0.0348850884
O 1.25799631 -0.2384458115 1.1633279516
C 0.0697905122 0.5028121699 1.0918944708
C -1.0722489999 -0.2836012841 0.5061720433
N -2.2970745878 0.3894915104 0.1790931656
O -2.2932497928 1.5673325565 0.4262511653
C -1.0905481345 -1.5899661644 0.2708839209
H 2.895549909 -0.8211581649 0.1376259448
H 1.4374248177 -0.6690136842 -0.8688562693
H 2.2888865025 0.791346645 -0.3095687
H 0.2051076381 1.426239183 0.5158925969
H -0.1891334813 0.8043953017 2.1098187136
H -0.6762394942 1.4590102816 -2.1709341536
H -0.2364897952 -2.2156048884 0.4943831674
H -0.0554172015 1.1527800091 -2.4463923536
H -1.9830448981 -2.0382929584 -0.1470685755
