14
0
C 1.6194948116 -0.9622886566 -1.7155317928
O 0.8616458666 -0.5069495155 -0.7699501691
C -0.4205740698 -0.3595582963 -0.7144524265
C -0.0806549409 0.2848444262 1.6929283979
C -1.0215294412 0.25881717 0.4982132683
O -1.5411819849 1.565275443 0.2217834895
H 1.173642997 -1.295779469 -2.6426715121
H 0.8187954389 0.8635962587 1.4722341935
H 2.6687156337 -1.002237375 -1.4824971204
H -1.0017299538 -0.6200305914 -1.5927652288
H -0.588392733 0.7496218885 2.5372416751
H 0.2274701558 -0.7227436367 1.9765101701
H -1.9170442485 -0.3110504112 0.7640911603
H -0.8265115313 2.0934197654 -0.1428801049
