16
0
C 2.4322699307 -0.5536804841 -1.1680019271
N 1.3402706482 0.0964793763 -0.4879832751
C 1.4339275908 1.2942975503 0.1103089327
O 0.5303063072 1.863080131 0.690211461
C -2.4655150534 0.3097844635 0.7825900267
C -2.2900832581 -0.9948744278 0.0825732857
O -1.2659526428 -1.3806600227 -0.4249385076
H 2.6754510088 -1.5120571684 -0.7041488366
H 2.1973391763 -0.7281159658 -2.2202029006
H 3.3181281051 0.0808097022 -1.1193458051
H 2.44339073 1.7403347495 0.0288657707
H -1.5465998822 0.8970139362 0.7879755054
H -3.2727746767 0.8640249062 0.295331787
H -3.187847508 -1.6441919301 0.0384336317
H -2.7978797432 0.1155928492 1.8065458824
H 0.439746267 -0.3734446654 -0.4487660311
