12
0
N -0.854819194 1.2909472915 1.2545087424
C -0.0724253268 -0.3062296506 -1.9660356103
C -0.5959831044 0.5152508357 -0.9824165648
N -0.27189642 0.4019932702 0.3344275827
C 0.5917288628 -0.5481874641 0.7350159332
N 1.145575454 -1.3773305266 -0.098134573
C 0.8123170852 -1.238320521 -1.401614369
H -0.1255247229 1.8083163485 1.7275730343
H -1.3939604053 0.7659372565 1.9306926642
H -1.3076720226 1.3181900073 -1.1536906961
H 0.8077635997 -0.5933023054 1.7980060962
H 1.3196011943 -1.960597542 -2.0382472397
