15
0
C -2.4243954778 -0.5633369388 -0.4121740126
N -1.210546109 -0.1478118535 -0.0613283136
C -0.6651168096 -0.5056582412 1.226745079
N 0.4860779364 -0.0689420348 1.4578447667
C 0.9011814942 0.694957554 0.2772702447
C 2.2209608583 0.1597786657 -0.2700126213
C -0.2669942101 0.5818925428 -0.6464016929
H -2.8127912136 -0.2936121881 -1.3794696294
H -2.9759127329 -1.1675449044 0.2863960973
H 1.0635735299 1.7260900825 0.619329919
H -1.2740557882 -1.1142367629 1.8840357434
H 3.0083324924 0.2449307308 0.4795899019
H 2.1146750729 -0.8877072707 -0.5564292485
H 2.5163471653 0.7291680018 -1.1526481078
H -0.3912532082 0.9892836171 -1.6350861259
