11
0
N 0.5148660715 0.0811533981 0.5393959026
C 1.2073499172 -0.648926403 -0.1388996296
C 1.9944872347 -1.4485707793 -0.8054717071
C -1.77592153 0.7798190452 0.9907278098
C -0.6246034864 0.8037203864 0.0078056846
O -2.9007253418 1.0483567814 0.6809949585
H 1.7669966213 -2.5027045485 -0.8728381713
H 2.8799091497 -1.059424583 -1.2871027543
H -1.4987297682 0.5122057466 2.0299989416
H -0.341444587 1.8549296439 -0.113228534
H -0.966443281 0.4343483122 -0.9631375007
