14
0
C -1.9858378415 0.5660916469 0.0450605931
C -0.5055242528 0.378930782 0.2522851486
O -0.0412071174 -0.4957058544 -0.7728873947
C 1.0683281464 -1.2736040128 -0.4485638148
C 2.271469565 -0.4780334618 -0.1247419261
N 3.1796665065 0.1607588498 0.1637269916
O 0.1003647115 1.6289490694 0.1791107382
H -2.381969057 1.2390689887 0.8042275838
H -2.5017988205 -0.3914840937 0.1017551999
H -2.1536812025 1.0051640725 -0.9386321455
H -0.293825131 -0.0974057496 1.2227413844
H 1.2929518067 -1.8994301092 -1.3124791218
H 0.8723697007 -1.9329881514 0.4067238753
H 1.0226779859 1.5722890236 0.4438218882
