12
0
N 2.0650519957 0.1421111547 -0.1763544665
C 0.716125956 -0.1437742022 -0.1030281159
C -0.1220397419 1.0795697426 0.1239356658
N -1.3068652004 1.1538686312 -0.2951879485
C -2.8071176163 -1.3980349645 1.0487235882
O -3.258647741 -1.9442803826 0.1761632056
N 0.1704967729 -1.2869118818 -0.13500455
H 2.6760613794 -0.5897676106 -0.4952925808
H 2.3367353876 1.066968693 -0.4622950991
H 0.3808171064 1.8902187692 0.6662636853
H -1.7220657806 2.0486062841 -0.0434433955
H 0.8517464822 -2.0273812331 -0.2895749885
