14
0
O -2.2583242113 -0.0937869219 -0.292018605
C -0.9162437597 -0.2781888916 -0.4274661574
C -0.4211150118 -1.5064148326 -0.5076595598
N 1.3163026399 0.9053572544 -0.5685145248
C -0.1225396431 1.0062476369 -0.4779441303
C 1.9689358983 0.4392946796 0.4034434862
O 1.517935216 -0.0895345895 1.5546343459
H -2.4605110498 0.8416498424 -0.2236059736
H 0.594062051 -0.359434404 1.4530796393
H -1.0759227783 -2.3658769611 -0.4694979619
H 0.6356516894 -1.6596728161 -0.6667640129
H -0.4021344574 1.5995340728 0.4076859329
H -0.472165444 1.5708493689 -1.3480640359
H 3.0556748608 0.4481605618 0.3776425572
