10
0
N 1.7420316326 -0.5444853025 -0.0801507081
C 0.4644450814 -0.1539265026 0.2049431555
C -0.7746184935 -0.6439502665 0.3513535884
C -1.1722944135 0.7542435959 0.7395640733
O 0.228796012 1.1529500184 0.5309122918
H 2.3223796593 0.1884515103 -0.454879668
H -1.2645922466 -1.5955106213 0.2641118814
H 1.8208259293 -1.4151679713 -0.5766775542
H -1.4494273132 0.9356103877 1.7795090062
H -1.8205408477 1.3116311518 0.0612999337
