13
0
C 1.9336042276 1.2920970405 -0.2755308882
O 1.7069246782 0.1327764723 0.4958307347
C 0.5930180296 -0.5883385837 0.104752367
C -2.8461871278 -0.9046438214 0.9465427106
C -1.6874775343 -0.384853879 0.6377214169
N -0.6390855188 0.154414793 0.3593046461
H 2.0691958281 1.0379133519 -1.3346340497
H 1.1052925365 1.9995123299 -0.1814925623
H 2.8465126548 1.7489556076 0.101682095
H 0.609327692 -1.5241749832 0.6667068803
H 0.6205150979 -0.8037457175 -0.9727186158
H -3.1084302325 -1.0633325161 1.9826149714
H -3.5481463312 -1.1702080945 0.1695272941
