18
0
C 1.7136101146 1.1727208385 0.809738836
C 2.1666674429 -0.0837140036 0.1351840304
C 1.5101966482 -1.2342201592 0.169649158
O -1.8047310169 -0.1123232891 1.0340743589
C -2.2612311077 0.5177954888 0.1184654802
C -1.5177741262 0.866301672 -1.1333342976
H 1.593840279 1.9846313689 0.0862721921
H 2.4526940829 1.5093586302 1.5413554766
H 0.7629574634 1.0218422989 1.3230036694
H 3.1054224232 -0.0279867664 -0.4117230026
H -1.0443478069 -2.2725334626 -1.1828540759
H 1.8910138635 -2.1166579578 -0.3307363914
H 0.5705033161 -1.3258653252 0.7055936071
H -3.3064625424 0.8888888455 0.1706211545
H -1.4682697636 -2.6919402779 -1.6299388405
H -2.0805545268 0.5123982906 -2.0008998907
H -0.5196266074 0.4313002323 -1.1302722194
H -1.453806136 1.9546935758 -1.2194732452
