15
0
C 2.2329865498 0.6117286912 0.7958025768
C 1.8063250268 0.0242397999 -0.4894375954
N 0.5409802942 -0.3636081489 -0.6125117325
C -0.4648091338 -0.3458591899 0.2509878901
O -1.5932852161 -1.0206393369 -0.1410166078
C -2.7667052237 -0.229229336 -0.1321475219
H 2.0896313818 -0.0900495954 1.6326716199
H 3.2838071427 0.8949868532 0.7706028675
H 1.6412843588 1.5070663056 1.0491924985
H 0.26983098 -0.7431761358 -1.5115839964
H 2.4221377132 -0.0380438523 -1.3700747184
H -0.2993050725 -0.1282435925 1.2963094243
H -3.5872470668 -0.8713107543 -0.4518454922
H -2.6722118193 0.6210962673 -0.81541863
H -2.979118915 0.1486100247 0.8733594174
