10
0
O -1.8877942128 -0.6444035441 1.2884634391
C -1.1964987113 0.2589269176 0.454330423
C 0.2901982435 0.0741263933 0.5248240847
C 1.1026025068 0.2137022426 -0.5078014789
C 2.3179557695 0.191047442 -0.9482697503
O 3.3343909783 0.2094704726 -1.5072054644
H -1.8047757137 -1.5269178146 0.9220630584
H -1.4354772451 1.2598815359 0.8275520039
H -1.5319272136 0.2078369676 -0.586343957
H 0.6653495985 -0.1818426127 1.5176946415
