11
0
N 0.9291194726 0.7998742588 0.1954170978
C 1.8511340005 0.3542008103 -0.7144683762
O 1.7931613306 -0.6782713682 -1.3201794926
C -2.1830934307 -0.8103656334 0.5259176493
C -1.1689734349 -0.0993235973 0.0740907802
O 0.042845367 -0.1097409784 0.7238803082
H 1.2053981299 1.4911761416 0.8757082626
H 2.6361317362 1.1191785082 -0.8629666881
H -2.101116362 -1.4139752762 1.4199434017
H -3.1166921645 -0.8038957737 -0.01623633
H -1.1908456444 0.5149689085 -0.817712613
