14
0
C 1.6107856332 -0.5375865117 -0.901210533
O 0.4004701346 0.1094728581 -0.5873760468
C -0.6154746725 -0.7775169452 -0.1749968603
C -0.7863845539 -1.0956065466 1.2605457882
C -1.6333376733 -0.2624766719 0.7485005156
O -0.6513700368 2.7149642014 -0.007212092
H 1.4678528212 -1.2832084883 -1.6920434405
H 2.0343284299 -1.0342681092 -0.020336063
H 2.3079756828 0.221344237 -1.2528298292
H -0.8517451181 -1.4974284451 -0.9604510461
H -0.2722296319 2.8652939727 0.8593633071
H -0.4224111664 -1.6338442021 2.1182323319
H -2.4684308509 0.4071218607 0.8547678335
H -0.2106399977 1.9167107903 -0.3301218655
