11
0
C -2.4080922498 -0.2538682971 -1.4064519135
C -1.3647199836 -0.0434846556 -0.6440228267
C -0.3556268829 0.15598798 0.0879474857
C 0.6987981586 0.3655367942 0.8546559198
O 0.6900129217 1.1513227636 1.9622262432
C 1.9687801119 -0.228543583 0.5832202058
C 3.030652426 -0.7301637494 0.3494640903
H -3.3634970396 0.2044915992 -1.1834799365
H -0.1947249621 1.5123608015 2.0723289981
H -2.3373864456 -0.891699034 -2.2786988883
H 3.9745989455 -1.1763646194 0.141672622
