9
0
O -2.3547714127 -0.2241308441 -0.1647898882
C -1.5585890305 0.765526262 0.1187905523
C -0.1672197718 0.2470733409 0.0512384499
N 0.8944032933 0.9490834828 0.2976218995
C 1.8888607409 0.0385802405 0.1061352554
N 1.4758022298 -1.1456940482 -0.236962303
O 0.1189103263 -1.0210618351 -0.2759711989
H -3.2633577107 0.0965563146 -0.1248564165
H 2.9385893354 0.2569600866 0.2236306495
