14
0
O 1.3448315232 1.9823376597 -0.2906750815
N 2.3630340834 -1.0010262647 0.2903675973
C 1.3109714401 -1.0723470209 -0.1613571499
C -0.0332442751 -1.1602475223 -0.7268966242
C -1.1250887295 -0.7733998504 0.2788608829
C -1.2031221064 0.7154803181 0.5157855146
O -1.2030056983 1.2207660846 1.6034253941
H 2.070885065 1.3969534968 -0.056765905
H -0.1824069973 -2.1844509358 -1.0721011916
H -0.0672843899 -0.5119021491 -1.6061388145
H -0.9933249338 -1.2840320288 1.2324807357
H -2.0896746467 -1.0769028449 -0.1411349146
H -1.284254774 1.3324379817 -0.4004112002
H 1.0841464392 2.4004630758 0.5330047572
