12
0
O 1.6219755774 0.7131259272 -0.2709445901
C 0.1477673968 -1.9798107075 0.0181398938
C -0.3772807161 -0.798470979 0.6677524282
C -0.7398367942 0.3846442526 -0.2134003587
C 0.4359572066 1.2272171357 -0.6428745372
O 0.3432315918 2.2520187087 -1.2588100685
H 2.3036957907 1.3039981048 -0.6153947704
H 0.5526779797 -2.6266552459 0.8186774449
H -1.3140848137 -1.3767151474 0.9063099704
H 0.0305560625 -0.5008688247 1.6408311864
H -1.4469087179 1.0617066995 0.2694463286
H -1.2090165635 0.0277230763 -1.1330149272
