14
0
C 2.0667440173 0.3602814929 -0.4580960233
N 1.3903836572 -0.8171157458 0.306275595
C 0.7264159136 -0.1663375296 -0.8257058647
C -0.5694308508 0.4928327097 -0.4394710136
C -1.7062560208 -0.2384209004 0.1559828103
N -0.8309169241 0.5859727903 0.9897585639
H 1.794272374 -1.7312503 0.1857110941
H 1.9135836932 1.2113643557 0.2199336772
H 0.9109337718 -0.6463530075 1.1859103589
H 0.6451321946 -0.791929856 -1.7140054117
H -0.812381034 1.3573162044 -1.0497786702
H -1.6249623158 -1.3058735822 0.3311155781
H -2.7120759112 0.112879128 -0.0446155803
H -1.2626825649 1.4636182406 1.2434948862
