17
0
C 1.7571530387 -1.8707105412 -0.5321676531
C 0.7022771671 -0.8267139873 -0.5040307086
C -0.7906741345 -0.9490522555 -0.2937886569
C -0.8268013265 0.6066320672 -0.492665846
C -1.3861512775 1.3945882847 0.6465269703
C -0.6760914378 2.0971225561 1.5161205069
C 0.6733123073 0.4971721348 -0.654704529
H 1.7875742957 -2.4134371442 0.4163102514
H 1.5514589783 -2.6068293793 -1.3139819251
H 2.7415589148 -1.4385610951 -0.714714514
H -1.0968132986 -1.2751691137 0.7031832731
H -1.3349519559 -1.5289637903 -1.0434847331
H -1.3499433169 0.8799666336 -1.4153484943
H -2.4688983022 1.3579218199 0.7534788784
H -1.1488803788 2.6333491618 2.3298212256
H 0.4046188374 2.1568161668 1.4461411275
H 1.4403148894 1.2387454819 -0.8463331731
