16
0
C -1.1085368193 1.4397062262 -0.4945202716
C 0.0814140236 0.8700012207 0.2696083273
C 0.1736029471 -0.6327980253 0.2469170568
C -0.9089477054 -1.5388765583 0.7196863017
C 1.3716157282 -0.9404694588 -0.2642106463
C 2.0358369139 0.328478043 -0.5654410118
N 1.3388191617 1.3611426732 -0.2793228162
H -1.0797369737 1.1127985948 -1.5357475733
H -1.0773699274 2.5284253479 -0.4755610818
H -2.050690516 1.1094549928 -0.0530716435
H -0.6158920813 -2.5856698219 0.6433272775
H -1.8197522868 -1.3974313674 0.1313482521
H -1.1671924023 -1.3302419305 1.7610121214
H 1.7822427234 -1.9277594394 -0.4274750243
H 3.029890552 0.4229942127 -0.9936710312
H 0.0298356624 1.2121252902 1.3118627631
