13
0
C -0.964914343 -2.2364812894 1.3510344652
O 0.723898738 4.1708387309 -2.3255387262
C 0.9348986178 3.3852164923 -1.4886299808
N 1.2534643318 2.6367544422 -0.6075673105
N 0.007101295 0.2303924088 0.4132443506
C 0.6459531312 -0.854683582 0.3263150271
O 0.3012567491 -2.0785048319 0.7290253132
H -1.7719763864 -1.9496556864 0.67200033
H -1.0244586557 -1.6488823363 2.2707150647
H -1.0529306565 -3.2924787512 1.5903699287
H 0.7650677992 1.8136592276 -0.2325274022
H -0.9011168083 0.1520904575 0.8591812343
H 1.630612188 -0.875091282 -0.1343342943
