16
0
C -1.6205850321 -0.2011369738 -0.4303608807
C -0.4734303525 -0.6412593752 0.4886676156
C 0.3908094729 0.5192950052 0.9222639056
C 1.708737982 0.553709059 0.8020190544
O 1.0679117979 0.3007498898 -2.3855418131
C -1.0099121493 -1.3158320247 1.6788682939
N -1.4426086371 -1.8302421632 2.6087102718
H -1.2062695161 0.2209178293 -1.3452649795
H -2.2441889666 0.5451262826 0.0642475909
H -2.249562236 -1.0518319868 -0.691574208
H 0.1507955989 -1.3666770197 -0.0397901957
H 1.2670326165 0.8167943473 -1.598792571
H -0.1383481079 1.357383084 1.3686355339
H 2.2617153803 -0.2795780836 0.3807677037
H 2.2805406813 1.4087957477 1.1410871852
H 1.4794494676 0.7645173819 -3.1158085067
