13
0
C -0.6708969718 0.0840292415 1.0147050232
C -0.6712724803 -1.1821865738 0.1670983736
O -0.4497289135 -0.3899814763 -1.0908578427
C -0.210561622 0.7988511639 -0.2547977015
C 1.2415394233 1.2092605929 -0.3270902199
O 1.7405926621 1.8969593182 0.5185191163
C 0.6414376023 -1.4799850873 -0.4068580619
H -1.6581998976 0.3993289825 1.3467522108
H 0.0374062415 0.0905194894 1.8394520288
H -1.5382763854 -1.8386868552 0.1415467533
H -0.8507914132 1.6108837739 -0.6044808423
H 1.7752610923 0.8835505863 -1.2367897466
H 0.5029946623 -2.3090421562 -1.1133070911
