12
0
C -1.932889791 -0.5351960191 -1.2663441905
N -0.7045687714 -0.2757652322 -1.1972655197
C -0.2544416181 0.5199785165 -0.0670156028
N 0.8228973256 -0.1101064322 0.636929321
C 2.1339326627 0.0905626315 0.3403394719
O 3.0479890502 -0.5334194193 0.8172476557
H -1.0706982973 0.734768513 0.6360424471
H -2.3085243991 -1.1186562068 -2.104356977
H -2.6621434164 -0.2012665034 -0.5162760435
H 0.1112278784 1.4715920944 -0.4601820573
H 0.6217946681 -0.9080150567 1.2188100183
H 2.282436708 0.9152181144 -0.3812395232
