16
0
C 1.5136509874 0.327819748 0.2141793636
C 0.7822405433 0.1875061619 -1.0846623546
C -0.421313759 -0.7424134494 -1.1324203377
C -1.3744688887 -0.1372836702 -0.1305997351
C -0.9131488918 1.0027066612 0.3727739125
C 0.4436128089 1.3247892981 -0.1472741924
H 2.5433666644 0.6584736988 0.1631223184
H 1.2981872763 -0.3715646199 1.013396808
H -0.5641199578 -2.0461828695 2.9103911215
H 1.3344443267 0.3736149509 -1.9959506037
H -0.8676036935 -0.7671764118 -2.1315037658
H -0.1605502697 -1.7748496857 -0.8790470894
H -0.7147484952 -1.5277070755 2.3955061417
H -2.3123890304 -0.6040902523 0.1442655274
H -1.4299318953 1.6175603916 1.0991121886
H 0.7233932744 2.3499991239 -0.3527503029
