14
0
O -2.0073688927 0.3613293824 -0.4236423038
C -1.475998975 -0.9309261571 -0.2278175389
C -0.0803357026 -1.2588409346 -0.4895209598
C 0.7764145597 -0.1088023058 -0.87007039
C 1.3313727786 0.4905308327 0.4276398804
O 0.2639726022 1.093402167 1.1478434623
H -1.5104940654 0.9572183337 0.1481044228
H -1.6245391639 -1.2847272524 0.8107724748
H -2.0757988331 -1.6347165629 -0.8202271111
H 0.5811090884 1.393093465 2.000341317
H 1.6416234846 -0.4523223337 -1.4415175211
H 0.258455815 0.6877060828 -1.4185048566
H 2.0846932312 1.2389145235 0.1644875049
H 1.8061690726 -0.2927852404 1.0272056192
