14
0
C -1.3258742515 1.1746108806 -2.0215254298
C -0.6902221857 1.0595603169 -0.6861640199
O -0.4917390318 2.1964082091 -0.1016310505
C 1.6591908491 -2.2000974866 2.1276069046
C 1.0460996093 -1.245593016 1.4381479868
O 0.135467441 -1.4816566418 0.4793918794
H -1.5394709244 2.2020601447 -2.3541133831
H -2.2503870425 0.590822264 -2.0028589727
H -0.6791517322 0.6734503385 -2.7466001205
H -0.7901913123 2.9642375639 -0.6290187788
H 2.3815527857 -1.9370277718 2.8865517362
H 1.4506481834 -3.2467238405 1.9454847113
H 1.2603482122 -0.1935801569 1.6269104993
H -0.1687236006 -0.6227488043 0.1038940374
