16
0
C -1.7624108448 -0.8258376363 0.2590155008
C -0.9871803602 0.182818296 -0.5537301063
O 0.3828704678 -0.1895897921 -0.5731557112
C 1.1919177392 0.7012219229 -1.3111363294
C 1.5281653471 0.1123626757 2.4752610597
O 1.5707578996 -0.936639741 1.7183549109
H -1.649868944 -1.8262171541 -0.1606131148
H -2.8223236872 -0.5685360197 0.2568508825
H -1.4208682977 -0.8430208317 1.2950607627
H -1.0804323683 1.189288695 -0.1250922812
H -1.3570841854 0.2211258663 -1.5859599119
H 1.1409890331 1.7137957276 -0.8952853996
H 0.8812102723 0.7270618634 -2.3608072979
H 0.9693548765 0.902863741 1.8917299891
H 2.2172451795 0.3398297278 -1.2506789418
H 1.1261538725 -0.8022013408 0.8445979883
