16
0
C 0.6687843065 2.0126528649 -1.0025121568
C 1.315706253 0.8692302172 -0.8111046274
N 1.103204378 -0.0194198348 0.2464939356
C 0.921463947 -1.4468033872 -0.0194105151
C -0.1648235611 -0.6180564278 0.5070768836
C -1.1160991296 -0.5644511632 1.6261355346
C -1.5698928209 -0.3215392245 0.1873210721
H -0.1293834152 2.3358701097 -0.3464479471
H 0.9506703649 2.6683558218 -1.8140969272
H 2.1399335841 0.5850827288 -1.4595285674
H 1.4720339704 -2.1147699327 0.6336583948
H 0.8533856889 -1.7539210118 -1.0596606388
H -1.0757916799 0.2983871865 2.2789887215
H -1.4063347706 -1.4907445543 2.1054480284
H -2.1575258975 -1.0884637547 -0.3012365243
H -1.8365422181 0.690456362 -0.0868636665
