11
0
C -1.2497889244 -0.4281954833 0.9347854409
C 0.1383817782 -0.6482549237 0.3778881307
N 0.4855897809 0.2891547819 -0.6053108969
O 0.8667263731 -1.5292330318 0.7330103664
C 1.667574478 0.3746762083 -1.3270983939
O 2.6117617292 -0.3501566878 -1.2431107133
H -1.4350463524 -1.1664723974 1.7096347017
H -1.9983530816 -0.537949975 0.1471390355
H -1.3442137879 0.5739997185 1.3580055896
H -0.2011918667 0.992534746 -0.8213829882
H 1.6311338735 1.2349870443 -2.0227542725
