15
0
C -1.7205921954 -0.4210905088 -1.1474149763
O -0.6549634054 -0.6757958112 -0.2555567953
C -0.4349117438 0.3354827436 0.6742644452
C 0.2452548239 1.570246738 0.1307867422
O 0.5309954319 1.7497476377 -1.0197677633
O 2.5052946229 -0.7196404938 0.3574484556
C 2.1433793492 -1.1049458133 -0.7197985321
H -1.8158569233 -1.299614101 -1.7832754818
H -1.5250857102 0.4547865134 -1.7707229859
H -2.659803844 -0.278445058 -0.5986692488
H -1.3689531124 0.65888412 1.16309758
H 0.2140098779 -0.0643823077 1.4595374789
H 1.9411595371 -0.4071089006 -1.5498281705
H 0.4714762201 2.3340440516 0.9046997917
H 1.9931010712 -2.1801148099 -0.9291345397
