8
0
N 2.3794621876 0.4599609273 -0.0079776277
C 1.1582194023 0.3269641167 0.0391907162
C -0.0951434374 0.0891168723 0.2181559644
C -1.3445519324 -0.5965159602 0.0856065567
O -1.2175892008 0.6823303581 0.7456295957
H 2.7025973353 0.9490820188 -0.8421158596
H -1.8764887585 -0.5680711657 -0.8602026639
H -1.5695195961 -1.4274521673 0.7468203183
