14
0
C -1.3420670025 0.8352199303 -0.7720107415
C -1.652784808 -0.1973749663 0.3126570444
C -0.5633481717 -0.3940194447 -0.6414307996
C 0.420921879 -1.1484911526 -1.0756885164
O 3.2238344605 0.6460107739 1.0423364675
C 2.0694387508 0.4663523859 1.2983369587
H -2.0360580013 0.9226707869 -1.5997190175
H -0.8938876238 1.7725603325 -0.462113952
H -1.4072275619 0.0597987472 1.3374145009
H -2.5528455047 -0.7912113823 0.2049000085
H 0.647138395 -2.0999641998 -0.6079583767
H 1.0345187549 -0.8442692019 -1.9155199888
H 1.7035218828 -0.4796446079 1.7396064399
H 1.300374551 1.2403399988 1.1107699726
