12
0
C 1.7909957601 0.4674259957 0.2591583283
N 0.5973417107 0.3372079024 -0.2242998491
C -0.3714957412 -0.3210303784 -0.8430546813
N -0.5425126553 -1.6940889052 -1.0000036213
C -0.8062660241 0.7683997903 0.0131440874
O -1.3085251246 0.5158976954 1.2747080158
H 2.5201523722 -0.3087508155 0.0786627862
H 2.0376483148 1.3675922995 0.8017620097
H -1.3603660616 1.3311127778 1.7782042861
H -1.1331440779 -1.9350428571 -1.7787021073
H -0.8578478456 -2.1657476314 -0.1602769049
H -1.0808946274 1.7463381266 -0.3845883495
