13
0
N 1.532224196 -0.2672324549 -1.6928120919
C 1.1209849057 0.2324288881 -0.6107751106
O 1.7215613893 1.148946746 0.255617525
C 0.5622520477 1.1348666907 1.1375760703
C -0.0481223033 0.1428794842 0.1969159376
C -1.5815869479 -1.3192776581 -0.9113925994
N -1.1998437464 -0.5035986812 0.0471862133
H 2.4541788703 0.079159879 -1.9404522993
H 0.8434309419 0.7887010886 2.1355732386
H 0.1092844363 2.1286454101 1.1927982398
H -2.5651729825 -1.7521154131 -0.845817607
H -0.8934244095 -1.5233789858 -1.7167142102
H -1.8776183975 -0.3437089936 0.7820626938
