13
0
O -2.9714442047 0.3601974771 0.6391416363
C -1.9553129441 -0.274995438 0.5992352784
C -0.5798516888 0.3342164224 0.7453822351
N 0.4245766765 -0.5351445403 0.1754493951
C 0.7585514245 -0.2968894455 -1.2172426745
C 1.6997080342 0.0743378877 -0.1363943504
H -1.9613210017 -1.3761100596 0.4659955892
H -0.3894673864 0.4378193432 1.8197773557
H -0.5967743389 1.3469249639 0.3163324781
H 0.2437443092 0.5127707429 -1.7273206812
H 0.934680978 -1.1807060436 -1.8177116791
H 2.5728237648 -0.5354039918 0.061656606
H 1.8200863774 1.1329826815 0.0756988111
