11
0
O 0.6625713201 0.5461740857 1.4907002093
C 0.3439975748 -0.0385429837 0.2718460382
C -0.61419122 0.6626201961 -0.6559541822
C -1.0598289243 -0.5325325849 0.1298343649
C 1.4089943029 -0.8207045594 -0.3290286502
N 2.2599329021 -1.418991528 -0.8144030674
H 1.3122168518 1.2385728236 1.3436836204
H -0.9505069193 1.6347155327 -0.3213386444
H -0.4597503157 0.5583713439 -1.7211743937
H -1.6868353488 -0.3615332665 0.9939514568
H -1.2166002235 -1.4681490594 -0.388116752
