14
0
O 1.1944959365 0.7374527482 1.5839284375
C 0.5380216664 0.225772405 0.4803862814
C 0.6825605402 0.8173304305 -0.8818528322
C -0.6689875971 0.8012157885 -0.2160177432
C -1.2746115982 -0.5932573263 -0.3420767036
C -0.0472376662 -1.1789197866 0.4143438459
H 2.13917247 0.6294028169 1.4568413796
H 1.163417345 1.7878984205 -0.8946936292
H 0.8754165503 0.1949023336 -1.7512953851
H -1.2039086438 1.7173560699 -0.0077146455
H -2.2031454498 -0.7144395328 0.2139242898
H -1.4250427104 -0.9460182127 -1.3646184635
H -0.3206841769 -1.5408637662 1.4049897504
H 0.5505333338 -1.9378323883 -0.0961445822
