12
0
C 2.5289806963 -0.3628251182 -0.2075666329
C 1.3819173683 -0.2855182208 0.1281250483
C -0.0142827335 -0.1827223835 0.5073370633
C -1.077282212 -0.7566622331 -0.4516166708
O -1.8090747783 0.4737526578 -0.4377820805
C -0.7477436845 1.1490006594 0.2458276723
H 3.5491632095 -0.4336578124 -0.5027938559
H -0.1532757211 -0.5329899241 1.5301152899
H -0.6887727912 -0.9917023903 -1.4466877151
H -1.6687321588 -1.5938098315 -0.0760831164
H -1.1014747167 1.6900345807 1.1254711019
H -0.1994224777 1.827100016 -0.414346104
