14
0
O 2.7105855535 0.064330663 -0.3938048336
C 1.6514206403 0.5158665095 -0.7354634662
C 0.3460422961 0.1003615886 -0.1463706336
C -0.8862594968 -0.5136750186 -0.8430227686
N -1.3474034111 -0.425281159 0.6041908438
C -0.7106806463 0.9570198353 0.5810978338
C 0.0521150307 -0.9268697008 0.950569881
H 1.5919892423 1.288871751 -1.531533754
H -1.4613466889 0.1152873843 -1.5237685621
H -0.7955723202 -1.534790441 -1.2148882539
H -1.2726911841 1.6880481436 -0.0015260003
H -0.4512391194 1.3388705456 1.5690501629
H 0.3624732927 -0.6883601337 1.9676513895
H 0.2105668113 -1.9796799679 0.7178181613
