13
0
C 0.491936515 -1.1394113321 0.1132242127
C 1.1343235031 -0.0505401214 -0.7114507956
C 0.5710595399 1.1336461832 -0.4919891568
C -0.5851779453 1.013070423 0.4416682538
N -1.697118909 0.1771130654 -0.0239213195
C -0.6630481376 -0.4289146612 0.7997962225
H 1.1946845438 -1.5402698213 0.8496595457
H 0.1582372347 -1.9855683278 -0.4959209433
H 1.9400335387 -0.2396740901 -1.4097882925
H 0.870347171 2.0672202162 -0.9508714166
H -0.8538631369 1.8200371514 1.1115239007
H -1.5646515542 -0.0545487777 -1.0030100186
H -0.9967623635 -0.7721599075 1.7710798077
