8
0
N -0.0109621514 0.7155105227 -0.1965446366
C 1.0727939929 -0.103581472 -0.1621714245
N 0.703594856 -1.3306693844 0.0490735843
N -0.6622911578 -1.3355366368 0.1595847049
C -1.0692186282 -0.1112045229 0.0106082561
H -0.0265716869 1.7082617952 -0.3418933802
H 2.0873306018 0.2359999359 -0.294445584
H -2.0946758264 0.2212197624 0.0428572899
