16
0
C -1.9617860773 0.4430021035 0.8112143566
C -1.7219490352 0.0490355984 -0.6387909674
C -0.4209289894 0.6226107346 -1.2122423327
C 0.7776357552 0.127592972 -0.5344616331
C 1.7486837708 -0.2929505079 0.0299068491
C 2.9340600304 -0.799398028 0.7129644852
H -1.1458988618 0.0979781017 1.449259057
H -2.8910050859 0.0133037271 1.189141117
H -2.0294585392 1.5289778975 0.9169479348
H -2.5515881517 0.3962596044 -1.260984819
H -1.6964930266 -1.0403417333 -0.7287666864
H -0.34954487 0.380871763 -2.276183458
H -0.4421842624 1.7151555076 -1.1439346337
H 3.5185885004 -1.4436991757 0.0542401049
H 3.5756298463 0.021236238 1.0380317351
H 2.6562389969 -1.3807710896 1.5936588907
