12
0
C -1.5602301891 0.1074710431 -0.0564213931
C -0.2033364712 -0.535823478 -0.3081341089
C 0.9380304389 0.2983414308 0.2338075072
O 2.1544428364 -0.3713334732 -0.0440481196
H -1.7446668986 0.2429629924 1.0122839948
H -2.3675467334 -0.50861029 -0.4543520778
H -1.6294755957 1.0892921301 -0.5313643042
H -0.1594176464 -1.5252306041 0.154835471
H -0.0448243908 -0.6839340312 -1.3797401929
H 0.8103027496 0.4415649286 1.3160108772
H 0.9250893889 1.2921202824 -0.235275648
H 2.8816325112 0.153179069 0.2923979943
