10
0
C -1.0033489078 -0.5667169083 -0.1726442609
C 0.2870775179 0.0701166836 0.367399834
C 1.4728944446 -0.4628003869 -0.3168074025
N 2.3788334412 -0.9182685051 -0.8498909528
C 0.2447480957 1.534557884 0.2584243757
N 0.1680572696 2.6752116988 0.185492332
H -1.8603046888 -0.1742843935 0.3724563697
H -0.9592113309 -1.6469769452 -0.0429467151
H -1.1253849023 -0.3424340911 -1.2309928809
H 0.3966390607 -0.1684050368 1.4295093008
