13
0
O 1.9300190879 0.7143006509 0.3200804507
C 0.9150489307 0.2346692535 -0.5068910943
C 0.2966141845 -1.1718364877 -0.194085992
C -1.0424267619 -0.4824383196 0.009593496
N -0.8222714229 0.5036327343 1.0777049528
C -0.4715074213 0.8455516651 -0.3093007117
H 1.5475977283 0.7755781498 1.2028433077
H 1.2698826463 0.304455554 -1.5346126663
H 0.699862874 -1.6789027032 0.6828818759
H 0.3244844848 -1.8358177571 -1.0574238389
H -2.0329967835 -0.864215849 -0.1943867081
H -1.7056017986 0.9489447854 1.3006767562
H -0.9087057485 1.7060783233 -0.7970798278
