13
0
O -2.2953662047 -0.3779069078 0.1406589242
C -0.9611453634 -0.1918185485 0.4523698604
C 0.1032734781 -0.8099095036 -0.4840777983
O -0.2808648729 0.1804252781 -1.5056565658
C -0.1961945777 0.9557912057 -0.2521480718
C 1.1251714239 0.2339310461 0.0234704239
O 1.5751808003 0.2182500438 1.3425343507
H -2.3742580142 -0.2649873171 -0.8133240325
H -0.8195015758 -0.3080140989 1.5234993623
H 0.2423637023 -1.8398611989 -0.8083078932
H -0.4111309576 2.0213849104 -0.2997060317
H 1.9013279506 0.4644346936 -0.7087224306
H 2.3911442113 -0.2817196031 1.3894099023
