8
0
O -1.4015950291 0.9844555004 0.0763873679
C -0.7918950961 -0.2857379773 0.0007304028
C 0.6424143431 -0.2576887923 0.3022025186
C 1.8181825322 -0.2102021626 0.5227716621
H -0.8890552087 1.5992515067 -0.4524487574
H -1.3054242673 -0.9167722486 0.7275735814
H -0.9346974573 -0.7409129698 -0.9869670387
H 2.862070183 -0.1723928565 0.7284613144
