18
0
C 2.0950830346 0.1205388578 -0.0314940616
C 0.8398822336 -0.7336269927 0.0709809709
C -0.4890549973 0.0458136508 0.1640323424
C -1.6530443833 -0.9422678245 0.3177017151
C -0.7156277163 0.933502035 -1.0664994144
C -0.4510187661 0.9038386067 1.3620760967
N -0.4168093417 1.5681180749 2.297582092
H 2.1174115991 0.7032602786 -0.9537000218
H 2.9838527162 -0.5117002302 -0.0243763404
H 2.1738594117 0.8129636066 0.8091568953
H 0.9111170347 -1.3841257712 0.946922945
H 0.7617754692 -1.3911936769 -0.8004337847
H -1.5224733913 -1.5703197618 1.1996875289
H -2.6044855777 -0.4170486999 0.4085092568
H -1.6985370424 -1.5866656143 -0.5624888374
H -1.6801193578 1.4387801681 -1.0055757455
H 0.056511094 1.695599004 -1.1657723567
H -0.7083220192 0.3145342889 -1.9663092807
