9
0
N -0.7663034265 -1.0513724777 -0.1218522295
C 0.1089661371 -0.007534596 0.3646947244
C 1.4899338559 -0.2459652582 -0.0904989145
N 2.5618512913 -0.4360221176 -0.4453574163
C -0.304150765 1.368789308 -0.0046031479
N -0.6923588572 2.4087470261 -0.2899873919
H -1.695465848 -0.9440572094 0.2611233773
H -0.8280213774 -1.0406349835 -1.1312806834
H 0.1255489898 -0.0519496917 1.4577616817
