11
0
C -1.1469702877 -0.4808069744 -0.1456236127
C -0.0065918028 -0.0695757415 0.7491663207
C 1.2890887374 -0.1804123501 -0.031635039
O 0.7515788585 0.6082457484 -1.1170385418
C -0.4496680888 0.8101969315 -0.3837158261
H -2.1274344909 -0.4069501839 0.3087036633
H -1.0203802351 -1.2881630496 -0.8587394242
H -0.1021929805 0.0577351378 1.8169118289
H 1.6016533801 -1.1771338203 -0.3560427518
H 2.1270867322 0.3411950629 0.4360009343
H -0.9161698219 1.7856692391 -0.4179875514
