16
0
C 0.9169305344 -0.7547182772 -0.6858514875
C 0.4760970145 -0.5878824615 0.7867192747
C 0.8267157984 0.9080471518 0.6094337072
C 0.2968747779 0.6551134813 -0.8206915181
C -1.187982622 0.3747872935 -0.5642534564
C -1.0514756035 -0.5719277645 0.6616017591
H 0.4766389354 -1.5694965366 -1.2656222254
H 2.0008959805 -0.7486506851 -0.8019952952
H 0.9059897719 -1.1877836757 1.5873786187
H 1.9010484862 1.0919820561 0.6321394953
H 0.3023841754 1.637240138 1.2316468665
H 0.5446396849 1.316094961 -1.6498660713
H -1.6690897137 -0.1070758068 -1.4172818652
H -1.7459500809 1.2841452396 -0.3337333419
H -1.4606574715 -1.5662958693 0.4739839888
H -1.5330596677 -0.1735792444 1.5563915506
