17
0
C -2.2759082802 0.3826026101 0.6146593743
C -0.8680952629 0.1258830789 0.198095569
C -0.1094242774 -1.2078426226 0.051539522
C 0.8970868072 -0.0456562546 -0.0550400912
C 2.3873073844 -0.0694656253 -0.0536373442
C -0.0764091214 0.6861411546 -0.9995242216
O 0.2138140456 0.5986473037 1.0845780637
H -2.9660953774 -0.0052646042 -0.1363242153
H -2.4477005769 1.4541676082 0.7260879454
H -2.4846477662 -0.1065716012 1.5671591897
H -0.0374549967 -1.7996522222 0.9633173302
H -0.2952517824 -1.8077763955 -0.8403786348
H 2.7556722285 -0.5716393513 -0.9496801674
H 2.7575899087 -0.6023616559 0.8232530993
H 2.7819423391 0.9474694705 -0.0375927717
H -0.2588003994 0.2507650709 -1.9830154982
H 0.0263751275 1.7705540361 -1.0193677653
