13
0
C 1.7198206222 0.3454688914 -0.3072006072
N 0.2921651986 0.3425054835 -0.5612920431
C -0.5451205674 0.9951042529 0.4036270983
C -0.508657498 -0.4947885497 0.3146171861
C -1.633175673 -1.2147216779 -0.3343655453
O -2.1239612248 -2.221172031 0.0975012117
H 2.1520710205 1.2550040057 -0.7257924207
H 2.1744386502 -0.5125726032 -0.8030987648
H 1.9648925556 0.3022026294 0.7638062399
H -0.0809039691 1.4274486824 1.286042498
H -1.3939258706 1.5435534933 0.0102517296
H -0.0179889135 -1.0290099755 1.1236540431
H -1.9996543307 -0.7390226013 -1.2677506257
