14
0
C -1.9293202785 0.7273347068 0.1274322556
C -1.1023129034 -0.5277031357 -0.1460620897
C 0.3538419841 -0.3296420239 0.1185087269
C 1.4134849875 -0.2837102994 -0.7450861956
N 2.4779947666 -0.062941499 0.053522253
N 2.1175418108 0.0237785939 1.3292588271
N 0.8389058274 -0.1350804376 1.3761002346
H -2.9914484657 0.5357605482 -0.0356783231
H -1.7944424134 1.0567136929 1.1581128301
H -1.6279223339 1.5453762171 -0.5300654467
H -1.4601203915 -1.3461340344 0.4832844428
H -1.2350982501 -0.8467105969 -1.1826455336
H 1.4916738535 -0.3885990364 -1.8138080056
H 3.4472218066 0.0315573045 -0.1928739758
