19
0
C -2.4408905296 -0.4033516938 -0.0592732898
C -1.2171615784 0.502213269 0.00477508
C -0.0967781744 -0.0257599507 0.92192646
C 1.2367303235 0.3732393144 0.2599849539
C 2.3451699385 -0.6578771344 0.4329550142
C 0.820971636 0.6038392959 -1.1721305851
C -0.4951333077 0.6713455088 -1.309279668
H -2.1634431564 -1.3990156601 -0.4149756976
H -2.9003427644 -0.5129289826 0.925762846
H -3.1984039846 -0.0034829991 -0.7372423421
H -1.5445797021 1.4921207216 0.3499735507
H -0.1847090773 0.3317285952 1.9493667504
H -0.1577761724 -1.1193151371 0.9535413088
H 1.5894583509 1.3260940539 0.6768515816
H 2.048184947 -1.6159720611 -0.0013488755
H 2.5683788698 -0.821746315 1.4897126874
H 3.2674085492 -0.3366323352 -0.0564629459
H 1.5399487169 0.7334439645 -1.9735469753
H -1.0170328845 0.862057546 -2.2405898535
