8
0
O 0.0147798417 1.990295585 -0.0447696772
C 0.0057780655 0.785730069 -0.0176047028
N 1.0468345668 -0.1155106548 0.0079044325
N 0.6176924766 -1.3939517671 0.0343367747
N -0.6380111176 -1.3847919942 0.0279972366
N -1.0485270125 -0.1001888716 -0.0027716024
H 2.028138651 0.0944779673 0.0077282632
H -2.0266854714 0.1239396664 -0.0128207247
