9
0
N 1.7262308397 -0.051040256 0.0558815257
C 0.3787215945 -0.0469403404 0.0872971259
N -0.4283686358 0.831381582 -0.4303868132
C -1.638954803 0.2810703237 -0.12332919
N -1.6081321574 -0.8354050591 0.5293131511
O -0.2314758858 -1.0664714011 0.6776636816
H 2.1691861035 0.8083173229 -0.2116011544
H 2.214374527 -0.6523470485 0.6934974929
H -2.5815815829 0.7314348764 -0.3974880808
