12
0
N 1.9398904714 0.4158853015 -0.3513197882
C 0.969694512 -0.5288854918 -0.1917136086
O 1.1636880036 -1.6151765625 0.300751425
N -0.2783407984 -0.0981338839 -0.6831287492
C -1.4678864559 -0.6398594493 -0.0764380916
C -1.095491492 0.7785243056 0.1434209157
H 1.7821205674 1.1688875593 -0.9952696095
H 2.8854841507 0.1224503493 -0.1861982445
H -2.2635395697 -0.8873433089 -0.7679187242
H -1.3191738949 -1.3346863606 0.7417243071
H -1.6117863333 1.5730054618 -0.3823967907
H -0.7046591606 1.0453320796 1.1197310393
