14
0
C -2.0808003012 -0.4616246323 -0.4866597342
C -0.5897818697 -0.2624565246 -0.6119976793
O -0.1861311881 0.7252877776 0.3174275472
C 1.1938275319 0.9479482688 0.3186657759
C 1.9584316627 -0.1397505798 1.0478302268
O 3.1425044634 -0.2982386934 0.9554845468
H -2.6079002948 0.4730505555 -0.6812593623
H -2.3394225499 -0.7987935608 0.5177655163
H -2.4231952552 -1.2097621804 -1.2031747145
H -0.058081325 -1.2060548883 -0.4213781158
H -0.3213518014 0.0603343598 -1.6277090122
H 1.3735093241 1.8844120796 0.8554542816
H 1.6055877671 1.0597877699 -0.6928761642
H 1.3328038362 -0.7741397516 1.7124268879
