17
0
C 2.0276300483 0.4079442056 -0.1147472304
C 0.96261793 -0.4018659761 0.6116270256
C -0.4440383226 -0.1268159061 0.1101165453
C -0.9190360402 -0.8550671846 -1.1241616176
C -1.4753013778 -1.2223537239 0.2142748284
C -0.9094689015 1.2296113618 0.2901811446
C -1.2786740146 2.3590201591 0.4493853084
H 2.01622271 0.1967147164 -1.1865079024
H 3.0237130737 0.1740236638 0.2646045394
H 1.8590502167 1.4785171932 0.0154568183
H 1.1605943946 -1.4711157601 0.4906092731
H 1.0011576405 -0.1957871425 1.6851396379
H -1.5553238088 -0.3147143084 -1.8110920911
H -0.2148467178 -1.5328917156 -1.5905095564
H -1.152076861 -2.1518129461 0.6656823894
H -2.4923296297 -0.9339813439 0.4414670579
H -1.6098903396 3.3605747072 0.5884738294
