18
0
C 2.0770517214 -0.1529252925 -0.3686511699
O 1.1132037398 0.2756801902 0.5557472965
C -0.2624886549 0.0978826238 0.2110000225
C -0.6217605615 0.9063207711 -1.0351616664
C -0.5909307374 -1.3811070667 0.0102850355
C -1.0107816076 0.640146391 1.4211136092
H 3.0485303764 0.0644842135 0.0743348919
H 2.0106376123 0.3789819873 -1.324881456
H 2.0233313679 -1.2302772693 -0.5631477829
H -0.1432525374 0.5092896906 -1.9320654392
H -1.7001253042 0.880217023 -1.202177127
H -0.3179312617 1.9472188992 -0.9102018232
H -0.1171208823 -1.7890159271 -0.884156364
H -0.2614395141 -1.9617230753 0.8739536664
H -1.6683880522 -1.5143389312 -0.1027069323
H -0.7333800439 0.080006363 2.3152549426
H -0.7552273589 1.6883691486 1.5827819607
H -2.0899283019 0.5607902607 1.2786783353
