12
0
O 0.2494561685 0.0628296021 1.8386200034
C 0.5375164485 0.1256450428 0.6669820123
C 1.8931678813 -0.1193519046 0.1966240252
C 2.9992901374 -0.3187769096 -0.2167845843
C -0.4668878433 0.4451358771 -0.3868700983
C -1.7031785831 -0.3885612927 -0.3757182055
N -1.7396453451 0.9912767937 0.0492868192
H 3.9889016305 -0.4988640822 -0.5681243617
H -0.0762154524 0.8148895978 -1.3270896299
H -1.7625769596 -1.166144517 0.377913397
H -2.1883367339 -0.6036554965 -1.3198570885
H -1.7314913489 1.0374719062 1.0650177111
