13
0
O 1.9882519171 0.3859258139 -0.4039696087
C 0.7392574181 -0.253993045 -0.3314656562
C -0.0017366597 -0.3167185872 1.0196544941
C -1.3005219408 0.0067147491 0.2500777941
C -0.427169928 0.558258881 -0.8980392647
H 2.6624452042 -0.2052878795 -0.0650820269
H 0.7822011289 -1.2469184412 -0.7964749981
H 0.306124073 0.5222071305 1.6463683182
H 0.0467752791 -1.2403512787 1.5974768539
H -2.0049279216 0.6918217334 0.7191609386
H -1.8357496609 -0.8970913852 -0.0437481585
H -0.22548887 1.6225105559 -0.7656692397
H -0.7294600394 0.3729217529 -1.9282894458
