15
0
O 2.1528620969 0.8754597951 -0.4175308769
C 0.9316624402 0.2776767899 -0.1947789587
C 0.6729614153 -1.1356924895 0.2858959324
C -0.7629707248 -0.9076272543 -0.2424293041
C -1.350140231 0.1679113727 0.6986038145
C -0.327408286 1.1020627133 0.0799350787
C -0.204624062 0.2422897037 -1.1569137815
H 2.4489953357 1.2849978801 0.3980583334
H 0.7910838734 -1.3730333958 1.3476552688
H 1.2193160237 -1.8527501794 -0.3279488046
H -1.3622745878 -1.7483118712 -0.5784599095
H -2.3663794485 0.4436765381 0.4132766216
H -1.3067847638 -0.0291913633 1.7739334804
H -0.2637258724 2.1807796655 0.1292207626
H -0.2725732089 0.471752095 -2.2085176571
