14
0
O -1.8302507568 0.4621555091 0.6785367515
C -0.937982226 0.2047329634 -0.3917716672
C 0.2597723701 1.1732017508 -0.371755656
C 1.3179602818 0.3880056585 0.3581497262
C 1.0135984493 -0.9029942549 0.4142172888
C -0.2986673382 -1.1912507248 -0.2674246609
H -1.3396712981 0.378012253 1.5007782978
H -1.54197902 0.3067027136 -1.2929736964
H -0.0127846025 2.1144391789 0.1103200738
H 0.593144946 1.4166003757 -1.3865112875
H 2.2243229758 0.8309895578 0.7520271822
H 1.6345775131 -1.6701914584 0.8599720311
H -0.1304104613 -1.6425002233 -1.2514573591
H -0.9516308332 -1.8679032994 0.2878929754
