14
0
O 1.1165418542 0.9454238933 1.6677898904
C 1.3011379008 1.2512748912 0.519072525
C 0.4449719171 0.9292140978 -0.6516656153
C 0.0643419725 -0.4593526077 -1.0262544041
C -0.2279323906 -1.3372228912 0.1782165461
C -1.2808364383 -0.2780978789 0.553264433
N -0.9703631746 0.5425544753 -0.6644244607
H 2.2082961634 1.8259632969 0.2364946986
H 0.6663023784 1.5673296136 -1.5012604439
H 0.2074688103 -0.8006927199 -2.0449618792
H 0.5909988451 -1.4978036959 0.8783030535
H -0.6603247135 -2.2962494331 -0.1003994835
H -1.1568808428 0.2459310831 1.4964644799
H -2.3037222818 -0.6382721244 0.4593606603
