10
0
N 1.5709085803 -0.042603824 -0.5608443546
C 0.2158817543 -0.0227201355 -0.2296178314
C -0.7058915937 -1.0135886821 -0.2357493875
O -1.9176782706 -0.5190922628 0.0758977719
N -1.8101451979 0.8171163327 0.304006404
C -0.5584291344 1.1186797686 0.1189465916
H 2.1334879516 0.5585489453 0.0194992514
H 1.9666488407 -0.9683532337 -0.5895955323
H -0.6590680355 -2.0704324199 -0.4416012921
H -0.2357148946 2.1424455114 0.2382235896
