14
0
C 2.7782635536 0.2946951053 -0.1449867149
C 1.3677684191 -0.0387358303 -0.3107985323
C 0.2149124166 -0.3306202651 -0.4699542703
C -1.2058562267 -0.6465654184 -0.6149083664
C -2.0148481046 -0.1568872161 0.5872377655
O -1.9238804694 1.2371665882 0.7614437327
H 2.9139491229 1.0436954147 0.6365891482
H 3.3556856507 -0.5889394953 0.1307658955
H 3.1916536738 0.6955821704 -1.071645885
H -1.5930030008 -0.1776574269 -1.5231501481
H -1.335590151 -1.7270134231 -0.7241115885
H -3.0713787658 -0.3788642552 0.429305198
H -1.6862072486 -0.6893906939 1.4887227017
H -0.9914688701 1.4635347457 0.8254910642
