10
0
C -1.4240301234 -0.2028562792 0.0445460167
C 0.0620906535 -0.1798100749 0.1014259516
N 0.7577127998 -1.1301127412 0.6469715908
O 2.0556038291 -0.780314205 0.5159084858
N 2.1843517703 0.4008564193 -0.1169633487
C 0.9800803198 0.7926961813 -0.3830046348
H -1.8441655522 0.6652249892 0.5541009147
H -1.7997473906 -1.1056793648 0.5219001556
H -1.7709230892 -0.184058907 -0.9896182304
H 0.7990267829 1.7240539822 -0.8952669012
