17
0
C 1.2777902491 -0.3575201126 1.0757632623
C 1.2746211259 0.7390407522 0.0615506222
C 1.2301013595 -0.7232260101 -0.3717567434
C -0.1637792043 -0.5092590853 -0.9845849464
C -1.4184635625 -0.7370294266 -0.1065536488
C -1.3738513284 0.7539329134 0.33456094
C -0.1188597947 0.9718936853 -0.5458539726
H 2.2359089647 -0.5266995152 1.5515086416
H 0.43232096 -0.526541106 1.7321934924
H 2.096817385 1.4393853555 -0.0043820623
H 2.012670524 -1.3198598949 -0.8217143959
H -0.2337042592 -0.7731831633 -2.0378762432
H -1.3102540094 -1.4778520671 0.6870879249
H -2.3069278887 -0.9878381814 -0.6861824626
H -2.2375804218 1.3276773528 -0.0016804142
H -1.2398538937 0.9367322545 1.4018711762
H -0.1569562055 1.7703462489 -1.2839511698
