17
0
C -1.5345914288 -0.5212874938 -0.5761770345
C -0.6599100525 0.1065621261 0.4931799742
C 0.6051226619 -0.7078893061 0.8366678595
O 0.5020592342 -2.0859586481 0.5805057182
C 1.4141085184 0.1719381551 -0.1358120426
C 0.2980165991 1.212855513 -0.0360453832
O 0.0058065056 1.8506673046 -1.2535410375
H -2.3141733179 0.1765513442 -0.8872812211
H -2.0114235556 -1.4236176454 -0.193076035
H -0.9625253173 -0.7954197405 -1.4623351574
H -1.2688766298 0.3902637609 1.3544507278
H 0.9068664904 -0.532321079 1.8758044467
H 1.3477711116 -2.4980145305 0.7641015152
H 2.4278042418 0.467612836 0.1338886327
H 1.4121142914 -0.2724534028 -1.1322737424
H 0.5082051581 1.9525280585 0.7446774137
H -0.6763745105 2.5079827474 -1.1067346343
