12
0
O 1.6098244438 -0.0971102361 -0.94669579
C 0.8800272865 0.2327405515 0.1953008353
C -0.4560979991 0.9603922449 -0.0145869479
C -1.0746043529 -0.3317975257 -0.575653186
C -0.2778192525 -0.6719121372 0.6945385177
O -0.8273496636 0.5257943211 1.3394105344
H 2.4020726907 -0.5678498628 -0.6849550941
H 1.4900116186 0.6517972225 0.9989302554
H -0.6418834383 1.9981707732 -0.2833876545
H -2.1554965233 -0.4055582251 -0.4720633524
H -0.6968458289 -0.7024408869 -1.5261867477
H -0.2518389812 -1.5922262398 1.2753486296
