15
0
C 2.3880056578 -0.6085489747 0.1075198426
N 1.0655949456 -0.0456303882 0.0041126584
C 0.717063504 1.2253213724 -0.2715296293
C -0.6550103474 1.2718442823 -0.268412703
C -1.0554857215 -0.0476995676 0.024674716
C -2.4366325611 -0.5991768198 0.1537127235
N -0.0001058764 -0.8309717308 0.1870304692
H 3.1215008275 0.179817025 -0.0503610471
H 2.525680716 -1.3846598332 -0.6455624619
H 2.5305803483 -1.0443618629 1.0961963978
H 1.4584409266 1.9884222467 -0.4473572814
H -1.2810516756 2.129742052 -0.4504532989
H -2.9837305378 -0.5191478396 -0.7878454325
H -3.0073198051 -0.0641471918 0.9150139196
H -2.3875304009 -1.6508027697 0.4332611271
