13
0
O 1.3611692764 2.1716511733 0.5618433764
C 0.8369696975 1.1657008215 0.1715574892
N 1.3400492004 -0.1016535243 0.250197097
C 0.491531008 -1.124320269 -0.3101260623
C -0.7471421131 -0.3152339596 -0.6559849181
C -1.4233676652 0.4311610744 0.4179825991
N -0.4541324958 1.1038281983 -0.4578617239
H 2.2394231789 -0.2669036809 0.6626353169
H 0.2881209597 -1.9293734915 0.4014131678
H 0.923386713 -1.5633859911 -1.213997599
H -1.2861080655 -0.5689878846 -1.5595826834
H -2.4480820075 0.7545281744 0.2881746636
H -1.1218176868 0.242989359 1.4437492764
