13
0
C 2.6541716717 0.6500406456 0.2079166203
C 1.4978011117 0.3687305221 0.0643553182
C 0.1277110377 0.0193642187 -0.1201561514
C -0.9942849963 1.0227234539 -0.2853879345
C -1.052473379 0.0473139193 0.8282334025
O -1.539253703 -1.2059943012 0.383783443
C -0.4026562772 -1.359040592 -0.4921436053
H 3.680183578 0.9003736081 0.3389281942
H -1.6835380808 0.9221437501 -1.1163524349
H -0.7226213434 2.0344495596 -0.0127225199
H -1.1161983329 0.2869952229 1.8811930785
H 0.2428495381 -2.1670820164 -0.1439421033
H -0.6916908247 -1.5200179909 -1.5337053074
