12
0
N -2.0386071699 0.1996244317 -0.3038779606
C -0.6525423879 0.0781863204 -0.1106520188
C 0.269837711 1.0904844275 -0.0325314247
N 1.5129834585 0.5114973408 0.0828428904
C 1.3914826436 -0.8396098 0.0833762259
C 0.0615431915 -1.1480693832 -0.0382199945
H -2.4009326 1.0935445392 -0.0123316481
H -2.5557875933 -0.5371463092 0.1494960093
H 0.1450795729 2.1604145969 -0.0606761021
H 2.3755843997 1.0145028406 0.1536490067
H 2.2519226453 -1.4830932494 0.1678629784
H -0.3605638714 -2.1403357552 -0.0789379619
