14
0
C 2.4214823892 -0.0012027097 0.0478960934
C 0.944202446 0.1223321815 0.0057218388
C -0.05074337 -0.788254993 -0.1103865686
C -1.28179656 -0.0533988309 -0.0898623806
N -2.5542099171 -0.6088002175 -0.2532969033
C -0.9315467309 1.2482201709 0.0376045141
O 0.4304549701 1.3644766429 0.0907530423
H 2.8826477258 0.5326203611 -0.7853495177
H 2.7062491252 -1.0505091585 -0.015045725
H 2.8225823397 0.4120674083 0.9753579016
H 0.0663933967 -1.8561874256 -0.2100902021
H -2.6595904748 -1.4977978316 0.2091235422
H -3.3025070586 0.0116188147 0.0109127196
H -1.4936182814 2.1648155875 0.0866616451
