16
0
C 1.9704703539 -0.3971949858 0.1659371283
C 0.6450522687 0.0623793561 -0.4288386422
C -0.4949415991 -0.9668567895 -0.2799139502
C -1.7783979441 -0.1476539477 -0.0541621287
C -1.2466674015 1.1742304387 0.4340672817
C 0.0574736895 1.2879763253 0.2276008282
H 1.8646137796 -0.5910580118 1.2365154445
H 2.7484539095 0.3583906787 0.0354343829
H 2.3178150738 -1.3169795116 -0.3103017302
H 0.8083024301 0.2833739416 -1.4923555157
H -0.5641617671 -1.6434127878 -1.1328700076
H -0.298142956 -1.5798595995 0.604475621
H -2.4602271687 -0.621563787 0.6556630423
H -2.3425850571 -0.0100884922 -0.9835797381
H -1.8786523798 1.9439920509 0.8605725921
H 0.6515947681 2.164325121 0.4617553919
