18
0
C -2.1284402835 0.5887120522 -0.6230488659
C -1.3938404291 -0.5220392761 0.1143538434
N 0.0283640526 -0.2549376269 0.2717858634
C 0.4164896603 0.4911293875 1.4456488671
C 0.8655551881 -0.6150032918 -0.7409377779
O 0.4457594739 -1.1644493685 -1.7442583636
C 2.3431936412 -0.32109041 -0.5837879452
H -3.1921130316 0.3563604221 -0.7012807797
H -1.7270841515 0.695425491 -1.6311621654
H -2.0332638049 1.5462155566 -0.1058146719
H -1.4970808255 -1.4594434635 -0.4301210204
H -1.8133447476 -0.6635414668 1.1140882019
H 0.1615353386 -0.062477726 2.354175228
H 1.485194315 0.6815563221 1.4551376489
H -0.0961576726 1.4574441619 1.4821887754
H 2.8484087457 -0.7418256897 -1.4485249036
H 2.7538544541 -0.7655410351 0.3239696386
H 2.5329700766 0.7535059609 -0.5524115734
