10
0
O -2.2098377012 -0.3027666966 -0.7224425968
C -1.034552007 0.3709784687 -0.4136258585
C 0.0907368697 -0.5901242076 -0.1096290199
O -0.0805891022 -1.7835625865 -0.1537611065
C 1.370634028 0.004170198 0.2342143398
C 2.4091656712 0.5299713837 0.5145670961
H -2.010554824 -1.2471705009 -0.6694187328
H -1.1644375275 1.0230497214 0.4605478785
H -0.7113649879 1.0142717911 -1.2432657827
H 3.3407995809 0.9811824288 0.7675371974
