16
0
C -2.487631699 0.148680646 0.2325071708
C -1.2254648026 -0.1160395204 -0.5768891325
C 0.0477514733 0.067732261 0.2387361565
C 1.3119876208 -0.2074910132 -0.5791466232
C 2.53981872 -0.0349364373 0.1921934925
C 3.5341402265 0.1117102625 0.8436394676
H -2.5641011776 -0.5384407869 1.0786227799
H -3.3851946041 0.027347825 -0.3762135947
H -2.4924073669 1.1652718652 0.6330234906
H -1.254075578 -1.1342166166 -0.9796186792
H -1.1987091116 0.5516959345 -1.4447414884
H 0.0927973451 1.0869053413 0.633953451
H 0.0330420403 -0.5967337455 1.107846255
H 1.2833852228 -1.2275226933 -0.974125112
H 1.3437112216 0.4574307735 -1.4476625024
H 4.4209504694 0.2386059042 1.4178748687
