11
0
C -1.5113028437 -0.0661341242 0.0272603116
C -0.0200543849 -0.0210658533 0.0025554639
C 0.8685599847 -1.0295200813 0.1377596429
O 2.123138987 -0.5765179056 0.0593992325
N 2.0937220425 0.7785455656 -0.1347114007
C 0.8355570031 1.1038232766 -0.1678603721
H -1.8674494439 -1.0916294513 0.126005775
H -1.9111543177 0.5074891489 0.8653011814
H -1.9345687055 0.3468015563 -0.8898977805
H 0.7558486168 -2.0917896291 0.2898764566
H 0.5677030614 2.1399974974 -0.3156885109
