11
0
N -1.2415975118 1.6029759716 0.2026510214
C -0.4563371405 0.6201699053 0.08059376
C -0.6646868925 -0.884953449 -0.025666945
N 0.663481344 -1.4772246979 -0.1676319875
C 1.4798824864 -0.5050198972 -0.1367463836
N 0.9206744352 0.7475067341 0.0111876368
H -2.2074581044 1.2937208071 0.2326279642
H -1.1605418668 -1.2748798668 0.8665705609
H -1.2906419386 -1.1362382259 -0.8850870007
H 2.5555292946 -0.6136801347 -0.2175887839
H 1.4016958943 1.6276228536 0.0390901573
