13
0
C -1.1466922781 -0.6769308285 0.0818779087
O 0.0360495163 -1.3797797801 -0.2651914598
C 1.1479484368 -0.6433711407 0.2189706594
C 0.7176180963 0.8040423367 0.1678367248
N 0.0441202611 1.236331316 -1.047271824
C -0.7553247288 0.7822515328 0.0806681066
H -1.5058187025 -0.9664871971 1.0788020796
H -1.9105628905 -0.9358310804 -0.6544365968
H 1.3933397543 -0.9218074945 1.2529362786
H 2.0014591131 -0.8804916956 -0.4197801054
H 1.2783423689 1.5539760764 0.7114825203
H 0.0977622895 0.5136374056 -1.7586041597
H -1.3982412361 1.5144605495 0.5527098677
