13
0
C -2.3216891898 -0.1940788278 -0.0945099157
N -1.0495711621 0.4732576521 0.0271562392
C 0.127189232 -0.1584762876 -0.188048578
O 0.2640135758 -1.3196067457 -0.4913502978
O 1.1523544884 0.7026508109 -0.0138282333
C 2.445895827 0.1437883614 -0.2095118111
H -2.9327262933 0.2554697876 -0.8804709562
H -2.8757037654 -0.1641910666 0.8462288087
H -2.1294662988 -1.2331439826 -0.3529379538
H -1.0085456325 1.4449735134 0.2736676144
H 2.6306562509 -0.6622363813 0.5009583824
H 3.1473873047 0.9580165017 -0.0440575559
H 2.5502056631 -0.2464233356 -1.2220385553
