11
0
O 2.2960371432 -1.4530804015 0.0662463539
C 1.2747850581 -0.8319121945 0.0377226749
O 0.0815638968 -1.5483884487 0.0323735632
C -1.1143615728 -0.9477052518 0.0001867453
C -1.2686912478 0.3820723748 -0.028943829
C -0.0865093326 1.1889252246 -0.0249452442
C 1.1279737204 0.611840522 0.0070971597
H -1.9255227991 -1.6639486684 0.0008185036
H -2.2576484314 0.814240607 -0.0540406202
H -0.1754763617 2.2689426968 -0.0478149269
H 2.0478499267 1.1790135397 0.0112996196
