11
0
C -1.3785111169 0.2972120118 -0.1648881002
C -0.4031966191 -0.6989503133 0.3890584049
O -0.7273640515 -1.6689400712 1.016809201
C 1.0930953133 -0.4843110203 0.1031661491
C 1.4764944336 0.8863266407 -0.2072965701
N 1.7590384408 1.9715295671 -0.4472114466
H -2.3938056586 -0.0553030045 -0.0026252795
H -1.1962910046 0.4618068259 -1.2293256917
H -1.2370127589 1.2621458055 0.3280193512
H 1.3495358063 -1.1232666454 -0.7468783268
H 1.6580172158 -0.8482497965 0.9611723085
