12
0
C 0.4900093969 -0.695032576 -0.7989569606
C 1.1115170685 0.0681626009 0.3485378403
C 0.3810237282 0.8119170249 -0.7462780811
C -0.9406197013 0.688582704 0.0513829334
C -0.8315001147 -0.8183736554 -0.0006230403
C -0.2101141729 -0.0547392789 1.1465053757
H 0.9608251549 -1.3238789574 -1.5399397378
H 2.1467072479 0.1326945407 0.649509869
H 0.7515916082 1.551953053 -1.4399888018
H -1.8211668662 1.3108099134 0.1122349686
H -1.6125981977 -1.5639452065 0.0142194726
H -0.4256751518 -0.1081501625 2.2033961621
