8
0
O 1.9669307469 -0.2867813933 0.0938088345
C 0.6416281618 -0.2287624568 0.1378437164
N -0.0581581035 0.84885489 0.4296311019
N -1.286708504 0.364538176 0.33240122
N -1.3505942075 -0.8956583266 0.0101991908
N -0.1239804716 -1.3044150705 -0.1216225996
H 2.3203473781 0.5810459499 0.3094366429
H -2.1094650002 0.9211782315 0.4922541967
