11
0
C -0.6975331376 0.763787512 -0.1797512234
C -0.6952619151 -0.7863447524 -0.0065387846
C 0.8098030779 -0.7090610646 0.2352844288
O 1.3863237566 -0.1004998617 -0.9105274463
C 0.8078159156 0.7456964972 0.0719369311
H -1.2566706991 1.267832688 0.6081792846
H -0.9964730625 1.1559525641 -1.1516960653
H -1.2552688488 -1.1062971688 0.8718603624
H -0.9899085361 -1.3844026794 -0.8687525153
H 1.4451062787 -1.3554694367 0.8264450914
H 1.4420671702 1.5088057021 0.5035599366
