15
0
C -2.5340773446 0.3016224552 -0.6195428625
O -1.8693331129 -0.8774801787 -0.2225630781
C -0.6648545443 -0.6572956414 0.4288346216
C 0.4711273789 -0.2442538311 -0.4946661991
O 0.3902408587 -0.0719571642 -1.6775896373
O 1.6005653943 -0.1027899943 0.2099528048
C 2.7562373979 0.2658294961 -0.5415227222
H -3.4871694746 -0.0035283256 -1.0478506626
H -1.9633975654 0.853220476 -1.371318268
H -2.7243844002 0.9526384378 0.2439449538
H -0.7525887351 0.1035888313 1.2179434672
H -0.3704142064 -1.590967281 0.9128189271
H 2.974891114 -0.4871622595 -1.2985381335
H 2.6038836245 1.22735453 -1.0318767561
H 3.5692736153 0.3311804496 0.1765957369
