19
0
C -1.7239864569 -0.4757349112 1.3800295267
O -0.3944469575 -0.3509500257 0.9402785871
C -0.2224639144 0.4330792372 -0.237339549
C -0.4526529247 1.9116658479 0.0345465749
C 1.177783159 0.1606937027 -0.7666101823
C 1.4633840401 -1.3108658334 -1.0399744539
O 1.6554274545 -2.0663917555 0.1341773024
H -2.1159687877 0.4651358638 1.7799943134
H -1.7332381738 -1.2195550696 2.1755991778
H -2.3803791346 -0.8145416968 0.568684572
H -0.9534806379 0.0830891006 -0.9836734666
H 0.2365262017 2.2618066221 0.8055488693
H -1.4727927314 2.1127052268 0.3641207581
H -0.2810364945 2.4926864973 -0.873227583
H 1.9165414765 0.5397505138 -0.0533495464
H 1.2998195933 0.7277348489 -1.6941765546
H 0.6502605741 -1.7340814517 -1.6500728412
H 2.3830488204 -1.4035926043 -1.6214796349
H 0.9476548941 -1.8126341128 0.7369241303
