13
0
O -2.2935382706 -0.3683738097 -0.0199526166
C -0.9831452449 -0.8080661396 0.2176568411
C 0.0564984812 0.1158575178 -0.4336762618
C 0.0278520727 1.5179704047 0.1588407908
O -0.8178886533 1.9005838989 0.9194620017
C 1.4119777501 -0.4201325217 -0.3465148868
C 2.5201234426 -0.8588453015 -0.2368447659
H -2.411733635 0.4481341425 0.4750248988
H -0.7665182965 -0.8878912105 1.2892439477
H -0.8915733203 -1.8034965841 -0.2173171352
H -0.2060369601 0.2350652913 -1.4937008077
H 0.8498676115 2.1852269406 -0.162606679
H 3.5041150228 -1.2560326288 -0.1496153271
