10
0
N 1.8696165864 -0.1027502621 -0.0196164271
C 0.5441643273 0.0751657941 -0.0142649054
N -0.2529934228 -0.9871756112 0.0802191731
C -1.5283294149 -0.6624660356 0.0745619855
N -2.028496269 0.566657098 -0.0151756148
N -1.1712585955 1.559518604 -0.1064168317
N 0.1050344988 1.3504139809 -0.1075570582
H 2.2452572328 -1.0298361821 0.0470456773
H 2.4714372937 0.6962525345 -0.0903716224
H -2.2544322364 -1.4657799203 0.1515756238
