14
0
C -1.8236978871 0.5168949498 -0.4360572584
C -0.505319283 0.3066032863 0.2528723333
C -0.050613054 -1.0260125298 0.7166813556
N 0.5263454329 -0.4124280499 -0.4638729834
C 1.8788058542 0.0847652558 -0.3277657036
H -2.6160687289 0.7039125508 0.2921389713
H -1.7763926899 1.3721668779 -1.1135736126
H -2.0902332064 -0.3638411175 -1.021448876
H -0.1603265442 1.1453396344 0.8571637107
H -0.6672525445 -1.9010394544 0.5417002429
H 0.558811247 -1.0664247146 1.6159569767
H 2.0877403172 0.4983397191 0.6711532872
H 2.5847004623 -0.725937049 -0.5170150734
H 2.0535006247 0.8676606412 -1.0679333701
