12
0
C -1.5230037823 -0.1189673116 0.3210621682
C -0.2702660542 -0.16495666 -0.5105096932
C 0.8868024944 0.7667002387 -0.1362624156
C 1.6180235144 -0.5302625861 0.1598277089
O 2.6883073115 -0.8684421842 0.5366500335
O 0.5641174664 -1.3228507769 -0.1773865336
H -1.2818793516 -0.1137053908 1.3856260258
H -2.1533674021 -0.9843409296 0.1138593859
H -2.0925482455 0.7829578257 0.087886043
H -0.49293263 -0.190900285 -1.5783562733
H 1.3286240462 1.3498926453 -0.9413122352
H 0.7281226327 1.3948754145 0.7389157856
