11
0
O 2.3839265115 -1.3105966078 -0.0707678395
C 1.2886014247 -0.8015728225 -0.0404270151
C 1.0900171841 0.6526495036 -0.0119291635
C -0.1448928584 1.1667741262 0.0232050427
N -1.2274876728 0.3244082312 0.0317034884
C -1.0221198294 -1.0203294583 0.0034356148
N 0.1190414579 -1.5927352212 -0.0305793608
H 1.9634694476 1.2884982031 -0.0194493123
H -0.3596786944 2.2271475272 0.0461425753
H -2.1626117415 0.6884626016 0.0571943049
H -1.9282652292 -1.6227060832 0.0114716652
