12
0
N -2.8873563266 -0.4296384501 -1.1805914799
C -2.0111063044 0.1210939346 -0.686373704
C -0.8855257929 0.799290853 -0.046385969
C 0.1358882934 -0.1797395857 0.4882284184
C 1.2371973818 -0.6710514728 -0.3597656755
N 1.4752422127 0.3597564737 0.6483401792
H -0.4079595678 1.4603533572 -0.7718522003
H -1.2697979216 1.4278865437 0.7600503981
H -0.2378624322 -0.8576558337 1.2493068808
H 1.3153297401 -0.3325294645 -1.3866451827
H 1.6057920221 -1.6743355093 -0.1808844307
H 1.9301586952 -0.0234308464 1.4665727653
