12
0
N 2.3878228376 -0.9860762464 1.2956450428
C 1.6198078249 -0.6091259546 0.5313744938
C 0.641705343 -0.1066807587 -0.4484175376
C -0.6756767922 -0.9377301975 -0.4632260441
N -1.6464951345 -0.1495888794 0.2916725569
C -1.1282150848 0.9915768478 0.4665582268
N 0.1288554042 1.2078854701 -0.0798220328
H 1.1279471858 -0.0890635463 -1.4241482959
H -1.0289160358 -1.0615205032 -1.4897163755
H -0.5487189027 -1.9270953956 -0.0260098229
H -1.6287330865 1.8076248045 0.9763185516
H 0.7506164409 1.8597943593 0.3697712369
