16
0
C 3.4003393662 0.3695557186 0.1633452239
C 2.0427079395 -0.060945029 -0.1484916312
C 0.926447534 -0.4223325546 -0.3913898705
C -0.4393365482 -0.8497431636 -0.6933089949
N -1.3636556718 -0.4846334253 0.3700487041
C -2.7390542905 -0.2935068571 -0.0428453568
C -1.8839679051 0.8645621668 0.3074349742
H 3.7770854734 1.0554869746 -0.5968991909
H 4.0756236442 -0.4856341922 0.2172425102
H 3.4264927958 0.8828735879 1.125762902
H -0.7416986854 -0.418726018 -1.6619920143
H -0.4656955466 -1.9368875834 -0.8050746566
H -3.4922648567 -0.6507078006 0.648885481
H -2.9763597093 -0.4353210964 -1.0940922025
H -1.5454771691 1.4982517052 -0.5078883742
H -2.0011863703 1.3677075673 1.2593109302
