10
0
C -1.2277365135 0.2190249055 0.1082135563
C 0.0566180872 -0.4752628692 -0.2351911578
C 1.3592786466 0.1499426959 -0.0319755809
O 0.8877361441 -0.8549408025 0.8507092942
H -1.9633943493 -0.4980976785 0.4771774799
H -1.6447154832 0.7078691138 -0.7748067522
H -1.0627263798 0.9711104691 0.8806161536
H -0.014527664 -1.2359098149 -1.0112212875
H 2.2036574621 -0.134539953 -0.6535676462
H 1.4058100496 1.1508039337 0.3900459404
