18
0
C -2.0050213299 0.4033961532 0.6412618584
C -1.32816695 -0.9605245812 0.5816241245
C 0.1988836631 -0.901555565 0.5761013107
C 0.7865662237 -0.2241477195 -0.6379778669
C 2.2046737194 0.2587252694 -0.6165470627
C 1.0763071699 1.2478603429 -0.6370385436
H -1.764306373 1.0088382642 -0.2341403003
H -1.6857279844 0.9613778186 1.5256918152
H -3.0909779704 0.3016083024 0.6880811039
H -1.6516514022 -1.5631660853 1.4356267428
H -1.6671638707 -1.4965154036 -0.3115543763
H 0.5935910178 -1.9210744848 0.63848659
H 0.5485535592 -0.3836759953 1.4773378384
H 0.4451695876 -0.6329512844 -1.5847464445
H 2.7573535127 0.1450840677 0.3082536004
H 2.8038137401 0.1473172176 -1.5105907439
H 0.9054543452 1.8106458999 -1.5456143517
H 0.8726493419 1.7987577835 0.2730596323
