12
0
O -1.117162826 2.239878977 -0.00096114
C -0.6433691341 1.1436349563 0.0043646468
C -1.1247989195 -0.2030333785 -0.5698868921
C -0.016087007 -0.8570383078 0.255607829
C 1.2940012268 -0.3412762257 -0.1928995566
C 0.4802865967 0.5116997455 0.7566628559
H -2.1353103164 -0.4073956821 -0.2138197166
H -1.0821158256 -0.3431062882 -1.6510309491
H -0.1241520673 -1.7515504206 0.8509496592
H 1.4326574554 -0.0270388711 -1.2216678067
H 2.172571806 -0.7805358544 0.2621506347
H 0.8634790109 0.8157613493 1.7205304355
