11
0
N -1.8244538419 -0.3336136477 -0.2661489334
C -0.4703106728 -0.0253340583 -0.0799341339
C 0.6187053788 -0.8555890084 -0.1951610114
N 1.7107660068 -0.0739519941 0.0037870991
N 1.4088609122 1.193928045 0.2392976702
C 0.0870660822 1.2429215983 0.1886274705
H -2.4364967295 0.2435325351 0.2881706259
H -2.0378088098 -1.3052882618 -0.1061160409
H 0.6979663711 -1.9101748944 -0.4039029846
H 2.6726137919 -0.3564126187 -0.01040336
H -0.4269084891 2.1799823051 0.3417835984
