13
0
C 1.7821240987 0.6074203244 0.4608083414
O 0.3824796922 0.5147445117 0.423072279
C -0.0799375945 -0.5980186523 -0.3071575166
C -1.586114368 -0.5019663749 -0.3745862488
O -2.0047511177 0.6648200772 -1.0445042884
H 2.0386857595 1.4887282273 1.0470417394
H 2.2278373364 -0.2768803951 0.9340970462
H 2.2039060397 0.711854322 -0.5470957855
H 0.3424056219 -0.5850841524 -1.3220630086
H 0.2236201381 -1.5353511901 0.1816312344
H -1.9837226272 -1.3529805031 -0.9305764699
H -1.9954307396 -0.5397621124 0.6434043299
H -1.5511022393 1.4024759178 -0.627947583
