12
0
C -1.9034761514 -0.0557011795 0.1195742426
C -0.4235755384 -0.0157853972 0.025305718
C 0.4936391004 0.9706971565 0.1538756515
C 1.7746042473 0.3643337267 -0.0502979837
C 1.5317031795 -0.9409509856 -0.2865160083
O 0.2005341244 -1.1897022974 -0.2439400949
H -2.2882630024 0.9428185627 0.3211799658
H -2.2277640042 -0.7205309773 0.9228750652
H -2.3458712319 -0.4164614814 -0.8112474554
H 0.2843788267 2.0062184519 0.3685296251
H 2.7399480804 0.842344206 -0.0244924389
H 2.1641423696 -1.7872797854 -0.4948462872
