18
0
C -1.5386963644 0.9479576699 0.5918642244
C -0.6494321213 -0.0006342167 -0.2070531825
C -1.2468970415 -1.4035124232 -0.2695427873
C 0.7518102449 -0.0347180936 0.3604036742
C 1.9138864598 -0.3866360564 -0.5158950565
C 1.7456267135 1.0203601856 -0.0153165807
H -1.1161929795 1.9544438291 0.6179576649
H -2.5402960645 1.0101371509 0.1604529746
H -1.6422773825 0.6027829789 1.6246885046
H -0.5764006541 0.3842144289 -1.2323347095
H -0.6190334968 -2.0717604409 -0.8623020603
H -1.3349312938 -1.8313733549 0.7333453244
H -2.2444104019 -1.391153316 -0.7144710287
H 0.8057421211 -0.3935365369 1.3850314541
H 2.7150555995 -0.9850462618 -0.102625094
H 1.711516468 -0.5748581206 -1.5636914183
H 1.4321792801 1.7726868612 -0.7293858665
H 2.4327509137 1.3806457166 0.7388739632
