13
0
C -1.1912668067 -0.6180544289 0.5928190862
C -0.1588522227 0.0285355534 -0.2909859511
O -0.6396441245 0.4035213938 -1.5543126407
C 1.2425393016 -0.4680408389 -0.3012960655
C 0.9224135458 0.8783120083 0.3058783243
H -0.7549465495 -0.9345276076 1.5413395261
H -1.6164567236 -1.4931474363 0.0979506048
H -2.0040913545 0.0794642068 0.8142220773
H -1.2428536656 1.1411850117 -1.4384157283
H 1.5037122519 -1.2832986823 0.3610035173
H 1.7474431321 -0.4701858939 -1.2576276508
H 0.9652575733 0.9829937757 1.3828882573
H 1.2267456424 1.7532429382 -0.253463357
