10
0
C 0.0664157564 0.7882406252 0.0997347088
C 0.9988537491 -0.4209736339 -0.047389773
O -0.1117554947 -1.3254875373 -0.1298942334
C -1.0556688282 -0.2491857914 -0.0345087481
H 0.1245209594 1.5242687213 -0.6995514528
H 0.1140695092 1.2946051788 1.0616713927
H 1.6041729897 -0.4409604066 -0.9583516304
H 1.6388483718 -0.6412854158 0.8114227929
H -1.6685902565 -0.1689338379 -0.9369883629
H -1.7108667559 -0.3602879023 0.8338553061
