10
0
O 2.2882936342 0.4845830701 -0.1217126657
C 1.1275018827 0.1936078296 -0.0711454584
C -0.1840642257 0.9241524809 0.2594124241
C -0.8737487382 -0.4320009076 -0.0157296012
N 0.4519628781 -0.9717980293 -0.3000359473
H -0.2429671251 1.2862993999 1.2839474018
H -0.4274168803 1.7260234132 -0.4347819597
H -1.3622087154 -0.8856876017 0.8482173867
H -1.550559337 -0.4412214034 -0.8717824788
H 0.7732066267 -1.8839582518 -0.5763891014
