12
0
C 1.6242958299 -0.5342081011 -0.1007470719
N 0.5093836178 0.3233083609 0.1960136334
C -0.7653545122 0.0200772963 -0.1296141087
N -1.2422306605 -1.0006381511 -0.7292507249
C -1.767963129 1.0630193096 0.2914539615
O -1.459627793 2.0728593243 0.8634801411
H 1.5132933672 -1.5142840784 0.3742653983
H 2.5364500248 -0.0776932277 0.2774398299
H 1.7398545593 -0.6849340262 -1.1788709604
H 0.645053761 1.1957574058 0.6779740593
H -0.5254913283 -1.6732092439 -0.9903703564
H -2.8076637372 0.8099451314 0.0246304085
