16
0
C -1.3314113555 1.476763877 -0.2062989432
C -0.0995213124 0.6426757734 -0.1087961161
C 0.0734368225 -0.7006054312 0.1190507085
C -0.9919476078 -1.7300729137 0.3308066685
C 1.4780718714 -0.9456706551 0.1163409716
C 2.1087329558 0.2433515412 -0.1108179334
N 1.1451042244 1.2014829707 -0.2454478414
H -2.2197966398 0.8480091841 -0.1706577472
H -1.365935129 2.0365448388 -1.1447692558
H -1.4053231173 2.1945704832 0.6152893936
H -0.9113164647 -2.5394959793 -0.3985351024
H -1.9914569096 -1.303564919 0.2362250747
H -0.9227835168 -2.1801156006 1.3242149674
H 1.9604514735 -1.9001943596 0.2619216885
H 3.1560096546 0.4840151329 -0.1925125573
H 1.3176850505 2.1723060571 -0.4260139756
