15
0
C -0.9026840058 -0.712141252 -1.0609404972
C -0.0397628764 -0.0106047698 0.0049835523
C -0.8748689084 0.2615574462 1.2705029885
C 1.1048524034 -0.8718872341 0.3506544041
C 2.0125360776 -1.5959513883 0.6399135096
C 0.4576046103 1.2677482869 -0.5337780643
C 0.8287102779 2.3163299941 -0.974857666
H -0.3182577918 -0.9110821632 -1.9583199152
H -1.7484273671 -0.0766608624 -1.3263979315
H -1.276567681 -1.6584501779 -0.6681127961
H -1.2501332716 -0.6794543213 1.6745747619
H -0.2705657051 0.7538671315 2.0313142867
H -1.7193199998 0.9058844246 1.0229362356
H 2.8255783867 -2.234148527 0.8932293531
H 1.1713058514 3.2449934128 -1.3657022215
