12
0
C 2.9911495279 -0.1109632462 0.4394039057
C 1.80050869 -0.1219261549 0.5643592238
C 0.3460751774 -0.1333034942 0.6863927737
C -0.3460529834 -0.100428766 -0.6863062008
C -1.8004733231 -0.1120759205 -0.5642890897
C -2.9911232242 -0.1233537879 -0.4394687632
H 4.0504751555 -0.1012550294 0.3362487468
H 0.023685407 0.7261388603 1.278388726
H 0.0324140999 -1.0260617318 1.2318819135
H -0.0325921856 0.7924121303 -1.2317695448
H -0.0236013898 -0.9597976596 -1.2783711829
H -4.0504649512 -0.1333642773 -0.3364705082
