16
0
O 2.1187242997 0.9800368902 -0.2145808212
C 1.8942432032 -0.4139309466 -0.1465969725
C 0.4954746334 -0.8157801494 -0.5922531665
C -0.5890568343 -0.2578946106 0.2967999672
C -1.9878890206 -0.1135184552 -0.2145750288
C -1.1612840261 1.111746039 0.0393339989
H 1.4349976395 1.4141753289 0.3001386266
H 2.0781849922 -0.7849148761 0.8720628671
H 2.6417159028 -0.8704396432 -0.7977549819
H 0.4340401088 -1.9092185724 -0.6035268019
H 0.3376150179 -0.4758272062 -1.6209440078
H -0.5008483739 -0.540245022 1.3421618944
H -2.1745558222 -0.3884272924 -1.2453428528
H -2.8062911717 -0.3250880444 0.4603251774
H -0.7946042506 1.6535729032 -0.823933285
H -1.4204662982 1.7357536568 0.8850423315
