13
0
N 1.92183953 0.8829637119 -0.040779256
C 0.5960313613 0.4120599161 -0.0264005412
C 0.0503290396 -0.8399403333 0.0918289176
O 0.8029552033 -1.9700507042 0.2363515888
C -1.3602588916 -0.7184662404 0.0396755479
C -1.6343098918 0.619159693 -0.1112133972
N -0.4558247848 1.2887410862 -0.1492359285
H 2.4572468864 0.4720942689 -0.7926033618
H 2.4003660961 0.687456722 0.827460602
H 0.2195098428 -2.7289597777 0.2616611285
H -2.0878343807 -1.5129034392 0.1086822694
H -2.5796862661 1.1298306017 -0.189778209
H -0.3303637447 2.2780144952 -0.2556493602
