9
0
N -1.0160602466 0.7974711336 1.698699702
C -0.6419775891 0.4715431877 0.5395219852
N 0.4734520143 -0.3190690114 0.3515619458
C 0.942271868 -0.7189038933 -0.870863163
O 1.9131815914 -1.4079212965 -1.0282512489
H -1.8467938362 1.376939049 1.6639199172
H -1.1283373976 0.762045953 -0.3956844062
H 0.9744699418 -0.6227031488 1.1747740289
H 0.3297936543 -0.3394019732 -1.7079489249
