11
0
C -1.8746861843 0.1147605135 -0.3777608043
N -0.4328098338 0.0637265471 -0.4511234372
C 0.34656964 -0.1156915794 0.641993345
O -0.0673085059 -0.2650261915 1.7704549867
C 1.7801762208 -0.1177418002 0.3360531534
C 2.9551246817 -0.1197366539 0.1091725635
H -2.3198749696 -0.5877693199 -1.0837815274
H -2.247399227 1.1192986784 -0.5895483056
H -2.169318743 -0.161817844 0.6320158819
H 0.0257604735 0.1939904386 -1.3350151582
H 4.0037664474 -0.1239927887 -0.0775343394
