12
0
C -1.7255372031 -0.2137240695 -0.0377770449
C -0.2484037836 -0.0171692099 -0.0095922704
C 0.792680655 -0.903906494 0.1276450199
C 1.9545887322 -0.1089359439 0.0836650568
N 1.6644398659 1.1687305589 -0.0691773787
N 0.3276331513 1.1997122613 -0.122931304
H -2.2109404929 0.2788010831 0.8076771651
H -2.1645883276 0.1806517149 -0.9566902871
H -1.9597063901 -1.2755853197 0.0157431239
H 0.7190758171 -1.9728631172 0.2427972157
H 2.9859792882 -0.4187708092 0.156366331
H -0.1352213128 2.0830593452 -0.2377256269
