14
0
O 2.0129858233 1.1913594636 -1.1793328661
C 2.0317476055 0.7087276975 -0.0814356536
C 0.9656848831 -0.1908562653 0.4853604121
C -0.2240150996 -0.3858738271 -0.4103457966
C -1.530958223 -0.8328744452 0.1712925098
C -1.3736898967 0.5699926586 -0.3384245025
H 2.8863932038 0.9028989332 0.6020185227
H 1.4545983716 -1.1448092487 0.7233729469
H 0.6677882127 0.2252641525 1.4556346509
H 0.0186624563 -0.7575604961 -1.3984447199
H -2.1376154703 -1.5206928795 -0.4024155236
H -1.5861387883 -0.9790775992 1.2433499979
H -1.868375022 0.8434593316 -1.2602769372
H -1.3170680565 1.3700425239 0.3896469593
