11
0
C -1.4273984772 -0.1763719454 -0.0296277182
N 0.0076221737 0.0041935103 -0.0195190647
C 0.7091503143 1.1632794669 0.0823502518
N 1.9882877712 0.9298705665 0.107955854
N 2.1544362815 -0.4252942156 0.0265609985
C 0.9687763058 -0.9544148324 -0.0457152815
H -1.6799971475 -1.0541752838 -0.6225872154
H -1.8994526204 0.6924954912 -0.4845614093
H -1.8156130506 -0.3059419259 0.981482528
H 0.2431572901 2.1352686264 0.126771253
H 0.751031159 -2.0089094584 -0.1231101963
