13
0
N -1.128024567 -1.0595163287 -0.9246467116
C -0.9296557776 0.2616024034 -1.1473998375
O -1.3930855656 0.8446637241 -2.1057784217
C -0.0982712465 0.9880489724 -0.0994387824
C 1.0952250237 0.2343927434 0.4563814305
O 0.6340063806 -0.8279797558 1.2852753765
H -0.7608300222 -1.4996858034 -0.0977234427
H -1.7062666858 -1.5683559703 -1.5683868913
H -0.7615485676 1.2606061244 0.7269580104
H 0.2390722287 1.9139433773 -0.564110964
H 1.7087236636 -0.158103405 -0.3634829311
H 1.7116680646 0.9242760178 1.0422990778
H 1.3889870713 -1.3138920992 1.6194301774
