11
0
C -2.3992107383 0.1442930199 0.3996577317
C -0.9733340696 -0.1072031798 0.254651799
C 0.1984422779 -0.3342129231 0.1407214541
C 1.6188352018 -0.6496274268 0.008182757
O 2.0415015025 -1.7829448888 0.0404762332
N 2.4110410656 0.4412125802 -0.1524411409
H -2.9707440134 -0.5063564032 -0.2633558899
H -2.6401498001 1.1806337711 0.1603925524
H -2.7140538279 -0.0548186329 1.4250555259
H 3.4008024653 0.3025383398 -0.2505372652
H 2.0268699361 1.366485744 -0.1749040119
