16
0
C -1.981241405 -0.2826928267 0.6056906077
C -0.7338342248 0.2715397788 -0.0509697761
O -1.0188091295 1.6142908699 -0.4148875079
C 0.4733491774 0.1988305165 0.8482539611
C 1.3219131906 -1.0330233995 0.855405917
C 1.8475937181 0.232091367 0.243553674
H -2.2120800053 0.2827053825 1.5107586309
H -1.8370966408 -1.3304573887 0.87375646
H -2.8328208174 -0.2066110718 -0.0709884465
H -0.5171121685 -0.3164239575 -0.9572196254
H -0.2021117985 2.0194704763 -0.7144931776
H 0.3499708178 0.7138869735 1.7956898628
H 1.7414721722 -1.363691783 1.7958971526
H 1.046831021 -1.8364769342 0.1828625617
H 1.9256667187 0.2670936606 -0.8373175486
H 2.6283093743 0.769468336 0.7650709602
