10
0
N 1.9223996579 -0.0468105477 -0.4422233654
C 0.5937091623 0.0702833179 -0.1545739441
N -0.1095163315 1.1489013835 -0.0791513098
C -1.3953767027 0.6824008355 0.1647671272
C -1.3870064134 -0.6562327651 0.2290955508
O -0.0892475994 -1.0706456726 0.0200738483
H 2.4378271321 0.8090163622 -0.3331207562
H 2.3776187184 -0.8684507154 -0.0845423326
H -2.2298829772 1.3547201423 0.2796254273
H -2.1205246465 -1.4231823406 0.4000497543
