16
0
C -2.1689467418 -0.6453425803 -0.1250719949
C -1.0143901627 0.2894313563 0.2078532715
C 0.3325425678 -0.2584297441 -0.2258258176
O 0.3207755579 -0.4153971099 -1.6309669972
C 1.4753140645 0.6520407688 0.1802746248
O 2.6727968069 0.0607547395 -0.3018664353
H -3.1217125879 -0.2202601868 0.1949124026
H -2.2192606952 -0.8290911696 -1.198324677
H -2.0497822733 -1.6097625382 0.3748822529
H -1.1649861497 1.2568874317 -0.2817345002
H -0.9823323555 0.4763483874 1.2858882561
H 0.4960865674 -1.2366060004 0.2532906417
H 1.2217024066 -0.6264810063 -1.8929261489
H 1.5027547601 0.7567349211 1.2717540512
H 1.3217993759 1.6412996993 -0.2679481643
H 3.377638859 0.7078730312 -0.2822761265
