15
0
C -1.90349321 0.0092279018 0.3169656052
N -0.4752743783 0.0736025137 0.4745806744
C 0.3372094059 -1.0512913579 -0.0062765529
C 1.4251289636 -0.0373082589 -0.4067588121
O 2.4311089031 0.160718361 0.551550291
C 0.2855399884 0.9978550094 -0.3757648849
H -2.3106959925 -0.7890201526 0.9406490088
H -2.3557742326 0.9495602718 0.6382221577
H -2.2042404793 -0.1812377478 -0.7281487089
H -0.1000589377 -1.5491070811 -0.8851748696
H 0.6005322166 -1.8004064496 0.744278369
H 1.9276677823 -0.1948625875 -1.3583487271
H 2.004363696 0.3027794819 1.4010077181
H 0.5057972961 1.9742285052 0.0626513903
H -0.1678110216 1.1352615904 -1.3694326592
