11
0
N 1.1322415005 0.3568950382 1.0069632624
C 0.1336463527 1.0254184338 0.2106981292
C 0.9868334758 -0.0385618951 -0.3714459691
C -0.2920413645 -0.9219743445 -0.5865101604
O -0.9245351663 -1.1090422978 0.6733600834
C -1.1246697979 0.1170479965 -0.0184766358
H 0.7164978042 -0.3219370671 1.6374477831
H 0.160400044 2.0985408384 0.0887780039
H 1.8270130893 0.0205233188 -1.0479221654
H -0.4764410306 -1.6505037747 -1.3628064954
H -2.1389449069 0.4235937535 -0.230085836
