18
0
C 1.7959810645 0.2795036427 -1.3266737279
C 1.0088694835 -0.5255028688 -0.3324410896
C 1.3308317529 -0.5419408537 1.11429355
N 0.1858149765 0.1947785601 0.6203691514
C -1.1299680793 -0.3513465084 0.9050325126
C -2.1350024151 0.2935991225 -0.031724675
O -2.1193066432 1.6961215444 0.0929208303
H 1.1658555459 0.5818522321 -2.1658944827
H 2.6330584404 -0.3001764459 -1.7212393131
H 2.1919190166 1.1812256302 -0.8578917238
H 0.5759143752 -1.4467726058 -0.7201625259
H 2.1517114867 0.0569790135 1.4930342778
H 1.1390553173 -1.4581708107 1.6658853527
H -1.1605763312 -1.4472839878 0.7974317112
H -1.3828832161 -0.1044482098 1.9396765953
H -1.9145747315 -0.0087462457 -1.0663549723
H -3.1454594312 -0.0457086874 0.2050728241
H -1.1912406116 1.9460374784 0.164046646
