13
0
C -1.2506077673 -0.733560011 -0.0452653777
C 0.0037261946 0.0953900793 -0.1329396799
C 1.2960526823 -0.640565309 0.1047795325
C -0.0610984203 1.5376167926 0.0942539468
O 0.0351974219 1.0141446941 -1.2218783378
H -1.3599295213 -1.1624811176 0.9532196251
H -2.129665733 -0.1280673175 -0.2650915595
H -1.2108961648 -1.5557261281 -0.7632673008
H 1.314112306 -1.075978508 1.1061615405
H 2.1478802107 0.0308704838 -0.0010957004
H 1.4078681302 -1.4516356335 -0.6183480738
H -1.0122672682 2.0028667314 0.3406181158
H 0.8196279291 2.0671252435 0.4488532689
