16
0
C -1.4562781207 1.08078392 0.0532002032
C -1.3441508751 -0.4178166851 0.3089311631
C 0.0720007159 -0.8806334682 0.6467107842
C 1.0405049756 -0.6902927905 -0.4882012433
C 1.9495447693 0.449013597 -0.5666412882
O 2.4184587848 -0.8333160009 -0.1853141511
H -0.8607702234 1.3877328572 -0.8089601233
H -1.1068520769 1.6524960702 0.9168442112
H -2.4906168773 1.3700485074 -0.1403691429
H -1.7042949335 -0.9668634073 -0.567646688
H -2.0079507568 -0.6965232865 1.1314643562
H 0.0581137873 -1.9429841576 0.908422065
H 0.4495994159 -0.3468453019 1.5243670418
H 0.7494255454 -1.1610249079 -1.4278638603
H 2.2988362629 0.8044987041 -1.5321294007
H 1.9344296067 1.1917263498 0.2271860734
