14
0
C -2.3013452428 0.2455555622 -0.1464588195
O -1.8011176397 -1.0686386899 -0.1325356045
C -0.6982077031 -1.2543135521 -0.9839552565
C 0.4987859091 -0.5035014784 -0.5818494535
C 1.4748727352 0.1108344013 -0.2543551255
C 2.6651204375 0.852752899 0.1431289503
H -2.6026974448 0.5449881394 -1.1592710357
H -3.1754129117 0.262006729 0.5025768692
H -1.5611979931 0.9629264015 0.22528429
H -0.4799995638 -2.3233006461 -0.9693104274
H -0.9612901013 -0.9820758552 -2.0163154192
H 3.1539578655 0.3787018006 0.9953431069
H 3.3807793372 0.8986049633 -0.6790977752
H 2.4077523158 1.8754593256 0.422868024
