16
0
C -0.5107810934 1.4399975727 0.5400826497
C -0.5479317898 -0.0224832093 0.179044177
C 0.4703222677 -0.4633398356 -0.8592897361
C 1.8497676389 -0.3266971872 -0.3973403011
C 2.9735355259 -0.2089782156 -0.0005715535
C -1.0004321778 -1.0044716407 1.1825572629
N -1.8408199921 -0.680094168 0.0256286044
H 0.4774163668 1.7222024069 0.9074758413
H -1.2413905192 1.6695315022 1.3181183931
H -0.7346033071 2.059031242 -0.3329539678
H 0.3346017537 0.1244864498 -1.7723072659
H 0.2711033645 -1.5037133487 -1.1228671821
H 3.9747377703 -0.1095320712 0.3462167287
H -0.5892731159 -2.0075926832 1.1839883152
H -1.295449715 -0.6331148452 2.1579549731
H -2.5908029775 -0.0552319688 0.2960471373
