12
0
C -0.014057856 -1.4648630789 -0.0002155799
N -0.0263238085 -0.0136220091 -0.0003919625
C 1.1708833543 0.6765543396 -0.0002786017
N 2.280115382 0.0727031486 0.000552624
C -1.2122617039 0.679705571 -3.04167e-05
O -2.3054902936 0.1799295004 0.0004141983
H -1.0455670871 -1.8056898481 -0.0058812378
H 0.5024859308 -1.832223143 0.8859566813
H 0.5126047827 -1.8316020765 -0.8805871476
H 1.0398181969 1.7618822561 -0.0009297571
H 3.0481673062 0.7338513831 0.0004029062
H -1.0575105621 1.7723964582 -0.0002520731
