16
0
O -1.3833970501 0.4546229487 -1.3144845388
C -1.6883780563 -0.2830387847 -0.1545856107
C -0.5284662393 -1.1211654627 0.3723615712
C 0.5984014169 -0.3660179395 1.0815499687
C 1.4944650119 0.503481877 0.2192770479
O 0.8062759307 1.6998563432 -0.1432513766
H -0.7028130323 1.0965354148 -1.0709328579
H -2.0584167534 0.3763464603 0.6444732722
H -2.5090577201 -0.9502237982 -0.4272916302
H -0.1184023135 -1.7019324221 -0.4608706423
H -0.9405606712 -1.8445244557 1.0836581033
H 1.2488177824 -1.1000621405 1.566456627
H 0.1877813171 0.2572969781 1.8830536632
H 1.8021895704 -0.0445893484 -0.6798918644
H 2.3949775171 0.7646866532 0.7854421302
H 1.3965832895 2.2587276766 -0.6509634951
