9
0
C -1.091457878 -0.6090424728 0.2255074468
N 0.0293906702 -1.3167674815 0.2710216398
C 1.1195481536 -0.6337294772 -0.05257681
N 1.1566590932 0.6457307928 -0.400364499
C -0.0274403362 1.2434865033 -0.408640433
N -1.1855993401 0.6717163186 -0.1067263882
H -2.0131167898 -1.1237396227 0.4817857702
H 2.0635832401 -1.1702076528 -0.0314292412
H -0.0515668129 2.2925530924 -0.6888690267
