12
0
C 1.3131220204 0.1420111882 -0.4073991007
C 0.3110777639 -0.9056892372 -0.0389824207
C 0.4268031433 0.3651660609 0.7767679081
C -1.0190036048 0.7355686388 0.3445639387
O -1.0899985391 0.7884289505 -1.0742103751
C -1.1298317513 -0.4810511922 -0.4354615717
H 1.1877110276 0.7296824678 -1.3054378145
H 2.3364498094 -0.1106286737 -0.1588378247
H 0.5803662622 -1.909940746 0.2528265839
H 0.7977803758 0.4751839746 1.7849599347
H -1.7465147701 1.3010932947 0.9100249574
H -1.9679617371 -1.1298247263 -0.6488142152
