9
0
N -0.6799428982 0.6832146693 -0.0165195327
C 0.6902589761 0.7225370075 0.0155097625
C 1.08452617 -0.5815519086 0.0259589105
N -0.0052990902 -1.413089438 0.001184169
C -1.0432370676 -0.6230123584 -0.0239003989
H -1.2984364911 1.4729147283 -0.031834851
H 1.2394737826 1.6482338318 0.0273750907
H 2.0890290495 -0.9726699248 0.0499621329
H -2.0763724312 -0.9365766074 -0.0477352829
