11
0
C -1.1757900329 -0.5606954708 -0.4541638608
C -0.1851257045 0.1789956401 0.4587331389
C 1.2006235246 -0.231935526 0.2117262717
C 2.3184758659 -0.5964869948 -0.0021826614
C -0.3300940593 1.635378341 0.3085878965
N -0.479559773 2.7656001395 0.1896722716
H -1.0782157212 -1.6341135448 -0.2974375536
H -2.1970587675 -0.2570017045 -0.2262731921
H -0.9659079641 -0.3390719462 -1.4996314111
H -0.4250191723 -0.0487878575 1.502154906
H 3.3176718044 -0.911881076 -0.191185806
