15
0
C -2.9128062285 -0.133201922 0.2708930712
C -1.4617347223 -0.2437434487 -0.1585635055
C -0.489342231 0.3195763418 0.8523306609
O -0.8321113422 0.8121764326 1.8985126642
C 0.9168933243 0.2311699403 0.4792622986
C 2.0699989154 0.1498017387 0.155400739
C 3.4734675453 0.0615447714 -0.2161878189
H -3.0858316281 -0.6698274238 1.2038318853
H -3.5704500393 -0.5483696712 -0.4937393818
H -3.1918523052 0.907187584 0.4385045333
H -1.2785220523 0.2753136991 -1.1054324826
H -1.1710864847 -1.2837423937 -0.3414162737
H 3.9171764474 1.0572515208 -0.2591638708
H 4.0244888641 -0.5215192162 0.5231046407
H 3.591711937 -0.4136179532 -1.1905095003
