10
0
N -1.2902523377 -0.764836528 -0.4242928727
C -0.4402411863 0.1047125137 0.375245936
C 1.0094382523 -0.121019029 0.2252573485
C 2.1750453567 -0.3508190149 0.0894373582
C -0.7634302997 1.5130938028 0.0766284446
N -1.014541402 2.6061922508 -0.1568531843
H -1.0730863825 -0.6604692342 -1.4073672426
H -1.1179824809 -1.7291166952 -0.1721702309
H -0.6998183529 -0.0520126353 1.4268164636
H 3.214868833 -0.5457254307 -0.0327020209
