13
0
C -2.147238586 0.2477885298 -0.2325549739
C -0.8293999933 -0.4836556675 -0.2031429655
O 0.2098297539 0.5066119371 -0.1103503431
C 1.4535639211 0.0489378621 -0.0771865191
N 1.7696836442 -1.1698568685 -0.1236892757
C 2.41332939 1.1441401251 0.021665829
N 3.2168686713 1.9580610579 0.0995563878
H -2.2035997847 0.9143624934 -1.0935206881
H -2.9623197681 -0.4737528099 -0.3027753275
H -2.2858670288 0.8378363688 0.6737000402
H -0.6633947213 -1.07704955 -1.1045951665
H -0.7453683154 -1.1540889507 0.6547032824
H 2.7739128171 -1.2993345278 -0.0844942416
