14
0
O 2.2111906242 -0.2850607499 0.1078949377
C 1.2095128871 0.2778951528 -0.6932304129
C -0.167745792 0.0884229488 -0.0870385151
C -0.5149293232 -1.1455540537 0.6692833982
N -0.2120598521 0.0910694547 1.3657073985
C -1.3047630049 0.7404659358 -0.795696901
O -2.3383436614 1.038463815 -0.2572969291
H 2.0020742802 -0.0423032762 1.0182977814
H 1.383474864 1.3533876593 -0.8453045527
H 1.25931108 -0.2074826001 -1.671343844
H 0.2359501384 -1.9213363214 0.7542997996
H -1.547707898 -1.4733421375 0.6356713968
H -1.0671131697 0.5449653027 1.6729514836
H -1.1488511725 0.9404088698 -1.8741950409
