16
0
C 1.5707877771 1.308425781 0.0214962432
C 0.4156591014 0.8404407466 -0.7570312051
N 1.6897491402 0.0460788821 -0.7067370176
C 0.9810393845 -0.9784933272 0.122427013
C -0.3341731999 -0.2139526813 0.0080984977
C -1.4571054992 -0.0525400599 0.9750982955
C -1.6686051809 -0.7773893736 -0.3289947395
H 1.5249801698 1.2869821319 1.1068581454
H 2.1807793803 2.0983530915 -0.3989212837
H 0.0768495482 1.3228117937 -1.6669143625
H 1.4077718629 -1.0986210862 1.1219841967
H 0.9774623862 -1.9395849469 -0.391348311
H -1.8949000015 0.9317392397 1.0869915882
H -1.4323321128 -0.6409153348 1.8839522486
H -1.7884558351 -1.8536836466 -0.3017519663
H -2.249506921 -0.2796512099 -1.0957762893
