12
0
N 0.3561780017 1.0782394361 0.8054674869
C 0.3789071739 -0.2583992082 0.2319074259
C -0.9236656369 -0.4846590886 -0.5454593568
O -2.0223625987 -0.3241977661 0.304245844
C 1.5463418051 -0.5164422613 -0.6321068282
N 2.4506027786 -0.6823747463 -1.3187652576
H 1.0434899949 1.1854596245 1.5375478024
H 0.5392662574 1.7813567158 0.1007297633
H 0.4052401844 -0.9786904604 1.0529299673
H -0.9560963503 0.212761235 -1.3950011936
H -0.9508154768 -1.498926368 -0.9452976006
H -1.8670861333 0.4858728873 0.8038019468
