14
0
N 2.5801864945 0.2188620764 0.4521757287
C 1.4599019991 -0.0614435126 -0.0210380673
O 0.9033304507 -1.2850522356 -0.3198248253
C -0.3065424955 -0.6586157469 -0.8244149022
C -1.3896849557 -0.5342878834 0.2522239634
C -0.8164829787 0.8507290205 0.6547474076
C 0.2578586856 0.7293651919 -0.4570760175
H 3.1299982968 -0.6182657855 0.631580527
H -0.5483827755 -1.0076149435 -1.825508566
H -1.3577743615 -1.3203284109 1.0053946826
H -2.3965658774 -0.480351676 -0.1617999076
H -0.4214001328 0.9445877353 1.6650971092
H -1.5127350675 1.6678094509 0.4744499557
H 0.4182927179 1.5546067196 -1.1434240409
