13
0
C -1.348639536 -0.5574516138 0.3745064086
C -0.146924782 0.2008976644 -0.1437055213
C 1.0928898032 0.3107397787 0.7099738352
C 1.110293591 -0.549672359 -0.5098288502
C -0.4649172012 1.3502179296 -0.9598421456
N -0.7272567224 2.2612109196 -1.6080939368
H -1.0207840044 -1.403375571 0.9802047727
H -1.9767822496 0.0835994949 0.9945323144
H -1.9538589158 -0.9394319694 -0.4487044271
H 1.0486376621 -0.1682787392 1.6793119899
H 1.6406740727 1.2424660208 0.6856003038
H 1.077076159 -1.6241660872 -0.3848752356
H 1.6695921234 -0.2067554681 -1.3690795077
