14
0
O -2.5279209798 -0.3969280134 -0.7385051655
C -2.1136560511 0.5175388618 -0.0636460447
N -1.0753809224 0.4293708105 0.799808953
C -0.2792932469 -0.7719655734 0.9077636064
C 0.8215679533 -0.8560901562 -0.1560878702
C 1.7781337109 0.2416176969 -0.0450882185
C 2.540708753 1.1571355124 0.078241617
H -2.5687752506 1.523372987 -0.0814437617
H -0.7243077987 1.2793655261 1.2049405649
H -0.9485044885 -1.6243178946 0.7950230524
H 0.1603876863 -0.8077025776 1.9052575263
H 1.3475770018 -1.8088732318 -0.0570841661
H 0.3592545725 -0.8446402709 -1.1457785832
H 3.2302090605 1.962116323 0.175730472
