17
0
C -1.7949341583 0.548442937 -0.0683782935
C -1.0131146546 -0.7351581282 -0.1517219851
C 0.3499317406 -0.8417543002 -0.7700873858
C 1.1812415237 0.4227358427 -0.9423559298
C 1.4212863144 0.8925009772 0.4709968627
C 0.8911845784 0.0655467038 1.3658625228
C 0.18003656 -1.0683566393 0.7196405523
H -2.2482747484 0.7830966 -1.0345371832
H -2.598590053 0.4620580488 0.6659098438
H -1.1702782575 1.3930795277 0.2225780282
H -1.6354007219 -1.6016215104 -0.3533754192
H 0.5389350979 -1.6738993391 -1.4354883938
H 0.6650989108 1.1830639211 -1.5391116834
H 2.1230612664 0.2118314921 -1.4572991846
H 1.9419409539 1.8133902428 0.7043444986
H 0.9372355889 0.1998626905 2.4395623547
H 0.2306400587 -2.0548190664 1.1634607953
