10
0
C -1.5923264741 0.234266735 0.0291000352
C -0.1934144803 -0.1634401946 0.2771973804
N 0.2259382236 -1.3322137376 0.5581521745
O 1.6141084334 -1.1881349154 0.6994235558
C 1.9512039294 0.0975599871 0.4878393522
O 3.029720991 0.5742280717 0.5261553822
O 0.7834638714 0.7675018243 0.2132259696
H -1.6859930284 0.6659023442 -0.9678655309
H -2.2323360525 -0.6407513703 0.1116888054
H -1.9003654135 0.9850812554 0.7574259417
