10
0
C -1.8568785807 0.263377975 -0.228144997
O -0.4659164759 0.4521683325 -0.4975133351
C 0.3542028856 -0.3782924203 0.1453321605
O 0.0064062513 -1.2396476049 0.9037005166
C 1.7422377368 -0.1065456967 -0.1904116644
C 2.8970402256 0.0809235175 -0.4361842846
H -2.3743333714 1.0059931585 -0.8288467708
H -2.1661296555 -0.7424674326 -0.5112830253
H -2.0628585408 0.4163324465 0.8310990775
H 3.9262295252 0.2481577243 -0.6540006101
