15
0
C 0.6160204849 1.4276012857 -0.2018569753
C 0.6219226263 -0.0416085402 0.2239825741
O 0.5641237582 -0.1586379484 1.6234507426
C -0.5548636773 -0.8285277099 -0.3984255128
N -1.7878074403 -0.417329092 0.253590191
C 1.8789743108 -0.6711242935 -0.2307391147
N 2.8368668737 -1.1549627156 -0.6344255489
H 1.4431685704 1.9504703284 0.2759092179
H -0.3154319208 1.8924363283 0.12589075
H 0.7100893831 1.5294325725 -1.2843617888
H -0.383093172 -0.1353983999 1.8276875174
H -0.390178948 -1.8870134858 -0.1942937504
H -0.5534594324 -0.6925729182 -1.4848313115
H -2.4530432634 -1.172589461 0.3100115772
H -2.233288153 0.3598240498 -0.2115885676
