16
0
C 1.3641360036 -0.8250032893 -0.0531816417
C 0.199772936 0.1562678306 -0.0900071341
C 0.6473629365 1.5690829059 -0.4164450748
N -0.9690143675 -0.2993782114 -0.8971103533
C -1.7851339519 -0.6128141036 0.2952763531
C -0.6971643378 0.0283408636 1.1479652762
O -0.5816202829 0.3246054617 2.2955525275
H 2.1086754709 -0.5084175896 0.6785243115
H 1.8464058579 -0.8699987414 -1.0330014829
H 1.033187332 -1.8311108067 0.215045762
H 1.1412811632 1.5907620361 -1.3904100734
H 1.3478708657 1.931580714 0.3380925186
H -0.2084158421 2.2430342474 -0.4548419702
H -0.7698866587 -1.1013231469 -1.4785628132
H -2.7587340859 -0.1192459445 0.3232549032
H -1.9187230389 -1.676382226 0.5198488917
