15
0
C -1.6116167704 0.9810154489 0.1061763059
C -1.8166859632 -0.4928851863 -0.1113063748
C -0.4970917768 0.0204403586 0.3640339482
N 0.5889851635 0.0064291433 -0.5707564653
C 1.6478221641 -0.9461880674 -0.3057715028
C 1.8590436135 0.5035052301 -0.0827992595
H -1.5162227884 1.602592443 -0.7738208173
H -2.0915245212 1.4508430847 0.9543908049
H -2.4380174795 -1.0388680098 0.5860818299
H -1.8556605224 -0.8424143188 -1.1342440564
H -0.2351083591 -0.1704193334 1.4065175173
H 1.5501679143 -1.5753843188 0.5744353196
H 2.0727813692 -1.4343326836 -1.174664846
H 2.4408370121 1.0883837036 -0.7852009455
H 1.902290944 0.8472825063 0.9469285417
