14
0
O -0.1975450528 -1.1900167364 1.2805473199
C -0.2299145383 -0.8882585775 -0.1021845229
C -1.1531692921 0.2996147381 -0.4360814815
C 0.0344346939 1.2535585059 -0.1791557694
C 0.9701420941 0.0417063174 -0.3832262821
O 2.1099554436 -0.1119270116 0.4000147402
H -1.0268160449 -1.595230507 1.5365469862
H -0.3211098285 -1.8030605202 -0.6954596141
H -1.4612988882 0.2850440829 -1.4824743207
H -2.0373056316 0.4129851753 0.1919017777
H 0.1635538486 2.1100716843 -0.8394531755
H 0.0611261494 1.5893787426 0.8576048716
H 1.2752493067 -0.0381428091 -1.4284952376
H 1.8126977399 -0.3657230848 1.2799147083
