13
0
C -1.7151277626 -0.2862326807 0.4872207984
C -0.3021686796 -0.487700404 0.0220409498
C 0.2308311677 0.1496578882 -1.2191045552
N 0.5999696143 0.6425680328 0.08059333
C 1.8903725577 0.5727220685 0.5625313451
O 2.8796670026 0.7901761145 -0.0836620482
H -1.7820773669 -0.3697565067 1.5734822765
H -2.373426584 -1.0378155239 0.0474261747
H -2.0725311271 0.7028414881 0.1986152497
H 0.1403149043 -1.4504118745 0.2693983543
H 1.0003693257 -0.368389785 -1.7806702709
H -0.4170698276 0.7950476224 -1.8011313786
H 1.9208767756 0.3472935603 1.6432597745
