12
0
C 1.339461953 -0.361413214 -0.0076763509
C 0.3581554209 -1.3367721436 0.0956282933
C -0.981333775 -0.9754928004 0.102898896
C -1.3393103046 0.3615150313 0.0077308505
C -0.3580717754 1.3369211853 -0.0955617995
C 0.9814649393 0.9756145948 -0.1028412939
H 2.3856084376 -0.6441859666 -0.0129290953
H 0.6375612761 -2.3811633827 0.1703189501
H -1.7476509588 -1.7372587368 0.1851149869
H -2.385635305 0.643782493 0.0128759738
H -0.637956441 2.3811349281 -0.1703543148
H 1.7477065328 1.7373180119 -0.1852050961
