17
0
C -2.2571009855 -0.38024214 -0.0671823668
C -0.7959916205 -0.4151105424 -0.4876460413
O -0.4947633254 0.6396770619 -1.3834883239
C 0.1370500616 -0.4236875527 0.7226313028
C 1.6096914166 -0.2983886121 0.3583528596
C 2.0984882703 1.1075816764 0.1513383313
O 1.4307281333 2.1014785688 0.2667857547
H -2.509823665 -1.2391290666 0.559104156
H -2.4689801803 0.5292592058 0.5014581445
H -2.9001768932 -0.3899268917 -0.9473389526
H -0.6169203734 -1.3276021945 -1.0677428777
H -0.3490764648 1.4432585076 -0.8731132397
H -0.1366556019 0.3946296938 1.3964359828
H -0.0255550868 -1.3521561613 1.2749476101
H 1.8521601605 -0.8589048632 -0.5521972016
H 2.2534440756 -0.7237350649 1.1375696445
H 3.1734820789 1.1929983752 -0.1074270406
