14
0
C -2.1626220387 -0.3365500948 0.649283541
C -1.1720371081 0.1538499761 -0.3778217215
O 0.1370131804 0.0649965535 0.2012174984
C 1.1580608399 0.4222983212 -0.5902142831
O 1.0184314883 0.7933872659 -1.7242794657
C 2.4711605173 0.308396445 0.1300749255
H -1.9558864181 -1.3713115059 0.925313736
H -2.1260511199 0.2750624698 1.5516233489
H -3.1727895241 -0.2854360271 0.2400144826
H -1.1961800774 -0.4483172111 -1.2881471995
H -1.3608938713 1.1905990021 -0.6643806303
H 2.5285370982 1.0821728569 0.8972160651
H 3.2844528633 0.4401616584 -0.5780770095
H 2.5488041701 -0.6573736344 0.6281767122
