12
0
C -1.6715887614 -0.2673141481 0.7585052536
C -0.1550285649 -0.290757269 0.7968404278
C 0.4837268047 0.357988885 -0.3951738921
O -0.1090242723 0.8490481662 -1.3207497322
C 2.0179455728 0.3989358395 -0.4389939509
O 2.7137627044 -0.034999849 0.4327138735
H -2.0467087519 0.7557540052 0.7199393654
H -2.0502181036 -0.7850213761 -0.123109748
H -2.0836222101 -0.7499951463 1.6448250409
H 0.2395978087 -1.3108136551 0.8570288214
H 0.2433814347 0.2053462874 1.6879585879
H 2.4177763388 0.8718282604 -1.3569583962
