15
0
C -0.6259770084 1.2854936362 -0.1545705573
C -0.2547037072 -0.1733565614 -0.0693466201
C -1.282992435 -1.0613886205 0.5837196496
N 0.4541987161 -0.7879613857 -1.1831327543
C 1.1808091811 -0.5601719907 0.0707643141
C 2.1977320497 0.4607981431 0.128894576
N 3.0099675353 1.2715916604 0.1667059928
H -0.8268640264 1.6897432677 0.8390721821
H -1.5315719622 1.4003246362 -0.75412196
H 0.165961427 1.8843570319 -0.6059879113
H -2.2284179689 -1.000352022 0.0407153107
H -0.9571780842 -2.1011694712 0.5763101015
H -1.4616334719 -0.7538210848 1.6159335582
H 0.7222665117 -0.094131444 -1.8726297213
H 1.4384032437 -1.4599557954 0.6176738394
