12
0
O 2.1638941585 -0.709457467 0.9455464763
N 1.5489019392 0.4715088025 0.5391465351
C 0.3971041251 0.2457466757 0.0921013175
C -0.6725282862 1.1577186447 -0.4454799168
N -1.6010054874 -0.0009929289 -0.4143978952
C -0.5050049443 -0.9456890277 -0.0860825077
H 3.0095247741 -0.4077402631 1.2828588118
H -0.4449123279 1.5428068015 -1.4447213271
H -0.9718002108 1.9862422074 0.1988559993
H -2.0557901304 -0.1869626753 -1.2959395188
H -0.1870023618 -1.6039508991 -0.9014295721
H -0.6813812482 -1.5492298706 0.8064151087
