8
0
O -2.131064479 0.352347693 -0.2243505678
C -0.9932178918 0.554868679 0.0742804208
C 0.065680146 -0.5421156468 0.0124994589
C 1.4113204338 -0.0129686463 -0.1671142048
N 2.4556661394 0.4390332722 -0.3059228124
H -0.6460610804 1.5413394057 0.4359153377
H -0.1871086876 -1.2419746555 -0.7842387662
H 0.0247854195 -1.0905301015 0.9589311336
