13
0
N -1.7725510247 1.0240271921 -0.2754063447
C -1.9016046148 -0.0586942125 0.3530035714
O -0.957080736 -1.0053482814 0.3951336661
C 0.2241894678 -0.7789549357 -0.3654248406
C 1.1703852059 0.1689779363 0.3711183483
C 2.4472594523 0.2734019646 -0.3260116728
N 3.4438984893 0.334456262 -0.8901038004
H -2.6060864642 1.593181851 -0.1919856364
H -2.7661318336 -0.3799616206 0.9356049212
H -0.0352349964 -0.3716752339 -1.3432883137
H 0.6809506011 -1.7599086776 -0.4849698362
H 0.719760125 1.1596333386 0.4395672363
H 1.3522463285 -0.199135583 1.3827627018
