12
0
O 2.4215514435 0.0668082129 -0.0471853463
C 1.2373693205 -0.5983922118 0.2564503986
C 0.0326255092 0.2973661543 0.1030222666
O 0.1563434959 1.420733008 -0.3275534699
C -1.3285414445 -0.2250493848 0.4925807733
O -2.3384281076 0.6852087271 0.1951046724
H 2.1729927049 0.9418124991 -0.3726163889
H 1.2621504164 -0.9820346604 1.2840863341
H 1.0902674165 -1.4663387647 -0.4019831937
H -1.3017144855 -0.4497090129 1.5683956923
H -1.5006247611 -1.1770889133 -0.025037748
H -1.9039915081 1.4866843466 -0.1246809487
