13
0
C -1.0647745161 0.8995162577 0.2552960403
C -0.9461157776 -0.5306283538 -0.1671825206
C -0.2685402799 0.5496001576 -0.9596358245
N 1.0996042971 -0.0484588921 -0.7635625337
C 1.4218353726 -0.1530960334 0.6609348863
C 0.4590117287 -1.0964938862 0.0754799296
H -0.6395784051 1.2826941893 1.1730242831
H -2.0211583862 1.3440064409 0.007419967
H -1.7942103623 -1.1434864981 -0.4328137799
H -0.4917968239 0.9437653453 -1.9403574203
H 1.1257060246 0.6175450671 1.3591343616
H 2.4288529778 -0.5223018433 0.8144436532
H 0.6911641505 -2.1426619511 -0.082181042
