13
0
C -0.346584991 1.4168747711 -0.3296857903
C -0.0937331934 0.0764256984 0.3655520067
C -1.1035866162 -0.9865751665 -0.0747976469
C 1.2785286575 -0.3812250914 0.1269025064
C 2.3942246337 -0.7583647079 -0.0931357292
H 0.3671093819 2.1725679129 -0.0008568465
H -0.2505926704 1.3092353609 -1.4119752563
H -1.3549352688 1.7719962772 -0.1081577014
H -0.200780358 0.2248038344 1.4454396632
H -2.1207161464 -0.654805449 0.1430606443
H -0.9315813566 -1.9316144907 0.4410460851
H -1.0238189398 -1.1672889206 -1.1485121781
H 3.3864668678 -1.092030029 -0.2844271645
