18
0
C 2.8433139469 0.3709801309 -0.1716622671
N 1.4581184286 0.2406359838 -0.5578165958
C 0.4604911086 0.028885931 0.3381794762
O 0.6589242627 -0.0780003629 1.5330354385
C -0.9394440389 -0.0795046458 -0.2543142023
C -1.4976755339 -1.4731099369 0.0263197
C -1.8284308765 1.0094110616 0.3415788587
H 3.200409514 1.3962825525 -0.295204146
H 3.4732181139 -0.2968538434 -0.7617220283
H 2.9219283873 0.0997477661 0.8789553289
H 1.2117232942 0.3398885124 -1.5251569545
H -0.8811614374 0.0654920014 -1.3388026025
H -1.5354819804 -1.6487369866 1.1022692648
H -0.8772083711 -2.2513985247 -0.4224938409
H -2.5075782963 -1.567967984 -0.3773937606
H -2.841026834 0.9372097242 -0.0600656851
H -1.8751950754 0.8999173964 1.4258371927
H -1.4449246127 2.007121224 0.118456823
