18
0
C -2.7494581264 0.0349442815 -0.5385378363
C -1.5614158003 -0.2944591793 0.3549862204
C -0.2267933683 0.131250387 -0.2456825506
C 0.9633242752 -0.1980648047 0.6458606975
C 2.284415079 0.222533221 0.0385161974
O 3.321562206 -0.1210776726 0.9399426624
H -2.6629668512 -0.4623130228 -1.5080289274
H -3.6903748889 -0.2842615007 -0.0867130307
H -2.8177348472 1.1097447462 -0.7246504315
H -1.538413933 -1.370978221 0.554176087
H -1.6874308632 0.1908063579 1.3285669261
H -0.101952607 -0.3549284864 -1.2206796236
H -0.2502740354 1.2092041746 -0.4453705804
H 0.8550330167 0.2960430337 1.6163473227
H 0.99874659 -1.2735990813 0.8448242483
H 2.2774825006 1.3047908531 -0.1516591563
H 2.4252438463 -0.282191837 -0.9273716443
H 4.1610078071 0.1425567512 0.5616973329
