11
0
O 2.1057915307 -0.8111848235 -0.7200164035
C 1.776520388 -0.2006478478 0.2600820926
C 0.3662688783 0.2336158124 0.5344098171
N -0.5058280928 -0.1823800932 -0.5229330348
C -1.831039663 0.0729427244 -0.491165212
O -2.3876556961 0.6648031038 0.4049593261
H 2.5145684884 0.0817814441 1.0340677338
H 0.0564840421 -0.179499056 1.5021473276
H 0.358472201 1.322947235 0.6648239258
H -0.0904538456 -0.6853304266 -1.2905819411
H -2.363128231 -0.3170480726 -1.3757936316
