13
0
C -1.8586236017 0.1859046357 0.0103441326
N -0.4240139045 0.0330668882 -0.0326484002
C 0.2606227703 -1.0859302295 0.3432323046
C 1.6022545918 -0.8294097626 0.2384991667
C 1.7363467374 0.5060593712 -0.2157906284
C 0.4706010803 1.0082909047 -0.3686064217
H -2.202004022 0.4664084389 1.0086318848
H -2.3382178676 -0.7493851454 -0.2780865494
H -2.162590334 0.9570874183 -0.696012961
H -0.2649514927 -1.9764064853 0.6510286431
H 2.3954557383 -1.5277733563 0.4527933696
H 2.6545137858 1.0338746386 -0.4179385087
H 0.1306065186 1.9782126836 -0.6954460317
