12
0
O 2.0261152009 -0.4490371795 0.3941235484
C 0.7407488361 -0.5363904084 -0.1261149556
C -0.5063226096 -0.4779601865 0.8015653884
C -1.2370558538 0.3955230577 -0.2534435107
C 0.1502893902 0.6906254089 -0.804534093
O 0.6736672635 1.6494519793 -1.2897520173
H 2.3821525563 0.4139514566 0.1620969804
H 0.656987302 -1.4078136999 -0.7872297842
H -0.9594876647 -1.4309136232 1.0637050037
H -0.2808716719 0.0886867635 1.7043683723
H -1.8089862353 1.257830823 0.0831108554
H -1.8372365139 -0.1939543913 -0.9478957878
