15
0
O 1.8658836054 0.8409265761 1.389689572
C 1.0788747046 1.1920818621 0.2736316333
C 0.7554835225 0.0062275916 -0.627149306
C -0.2929885087 -0.9467693994 -0.0570243409
O 0.1812040337 -1.4278288949 1.1985066492
C -1.6096044794 -0.3098843967 0.0894552918
C -2.6916470627 0.187077896 0.2146623479
H 1.442951408 0.0838760457 1.8071327011
H 1.6585954928 1.9234204478 -0.2925167942
H 0.1474171324 1.6845865588 0.5859815456
H 1.6703087441 -0.5634011982 -0.8085017334
H 0.388562649 0.3650822715 -1.5920094489
H -0.4095013614 -1.7902711688 -0.7485219319
H -0.5347095701 -1.8816585515 1.6477904428
H -3.65083031 0.6365343597 0.3225125043
