16
0
C 1.8045342307 0.1936709986 0.4967423808
C 0.8463182758 0.2826508483 -0.6855365937
C -0.5933324739 0.0099233332 -0.3140137676
C -0.9249925852 -1.3890080174 0.1349935309
C -1.4408989818 1.1239053058 0.1070840778
O -1.549063379 0.5849624652 -1.2015592613
H 1.8298406328 -0.8103521021 0.9244487434
H 1.5137064509 0.8865193194 1.2898950939
H 2.8215085745 0.4448852613 0.192146237
H 1.1438149412 -0.4269123742 -1.464302635
H 0.8935403434 1.2767964089 -1.1357618984
H -0.6350189131 -2.1111821183 -0.6317339607
H -0.3988700079 -1.6433035656 1.0569906585
H -1.9959892629 -1.48858538 0.3101698477
H -1.023550224 2.1265888922 0.1622238888
H -2.2915476216 0.9394407249 0.7582136578
