9
0
C 2.1669485909 -0.5102321112 0.3636986491
C 1.1018450926 -0.134017647 -0.0312899451
C -0.1749121227 0.3165674201 -0.5362381509
C -1.4206880197 0.0170057781 0.1734848845
O -0.8562688107 1.3116402573 0.2119676773
H 3.1127548232 -0.8424941264 0.7218419001
H -0.2166310788 0.4578194181 -1.6126651657
H -1.3712643138 -0.5404810418 1.1035789897
H -2.341784161 -0.0758079472 -0.3943788388
