14
0
C 1.5219436355 0.1659384737 -0.2206079246
C 0.1349355417 -0.1331817434 0.2952981262
O 0.2773155413 -0.7236097578 1.5600206008
C -0.7907376955 -0.8296938585 -0.7212973462
O -1.4806969738 0.4003314005 -0.9767818643
C -0.8675220364 1.0290984031 0.155784683
H 1.4703590091 0.6299569496 -1.2064566074
H 2.1003454816 -0.7563524992 -0.2937074106
H 2.0379829494 0.8436044698 0.4613080347
H -0.5917167735 -0.9267036378 1.9131351908
H -1.4493152815 -1.5799523681 -0.2654996215
H -0.3338051361 -1.2458030704 -1.6224751692
H -1.5599850225 1.1079679204 1.0035164444
H -0.4691032394 2.0183993179 -0.0822371358
