13
0
C 1.9142447043 0.21385055 0.1780770306
O 0.6962995689 -0.3758322202 0.5798511423
C -0.3820173473 -0.0940161172 -0.2657508387
C -1.5733398517 -0.9240005627 0.1768834527
C -0.7130968255 1.3531534433 -0.2449921979
N -0.9632675527 2.4723965012 -0.2309547132
H 1.8529011854 1.3075730677 0.1888276264
H 2.2012291532 -0.1186162852 -0.8268707788
H 2.6698325407 -0.1076726687 0.8914953998
H -0.1224977705 -0.3359354358 -1.3069190659
H -1.3143292533 -1.9800360175 0.1111898548
H -1.8304182956 -0.6855974977 1.2084520824
H -2.4355402558 -0.7252667571 -0.4592889942
