15
0
C 1.6787098565 -0.8877877226 0.0282659571
C 0.8947530774 0.391530876 0.0912594248
N 0.225402923 0.8462858149 -1.1175563258
C -0.59700301 0.4371752805 0.0232656865
C -1.4698451915 -0.7809585639 -0.1494370357
C -1.2122463412 1.504556003 0.7915054499
N -1.7034314375 2.3545407941 1.3872573005
H 1.7283716801 -1.3603436052 1.0110024824
H 1.2397979709 -1.5895235055 -0.6790218352
H 2.6986514332 -0.680037263 -0.2996646449
H 1.3361522191 1.1615510321 0.7182892836
H 0.2550728367 1.8540383598 -1.212324409
H -0.9683949036 -1.5133289484 -0.777781815
H -1.6979620628 -1.2334349102 0.816654023
H -2.4080290502 -0.5042636417 -0.6317135424
