17
0
C 2.0320891916 0.3994528953 0.1768779616
C 0.5910951008 0.0469157431 -0.018090799
C -0.0555600763 -1.2589859915 0.478681277
C -0.9318835344 -0.9286174855 -0.7330810744
C -1.7034171092 0.3227257432 -0.2966096141
C -0.4915990432 1.1013090084 0.2736346241
O 0.2352683344 -0.3557893084 -1.3757422909
H 2.2947664506 1.2654105649 -0.434086187
H 2.6765831331 -0.4332545743 -0.1061329742
H 2.2207717869 0.6478541874 1.223285185
H -0.5067080561 -1.2852751106 1.4716399875
H 0.5861968367 -2.1199678931 0.3004880217
H -1.4424506965 -1.6843623074 -1.3262447006
H -2.4745898079 0.1068982664 0.4443409655
H -2.1643191769 0.8207180676 -1.1487650731
H -0.2887861373 2.0256555435 -0.2675733123
H -0.5774571965 1.3293126509 1.3373780037
