12
0
C -1.1266616059 -0.7543125817 -0.6434825799
C -0.2216941811 -0.1152204388 0.4221306889
C 1.1255346616 -0.6992893887 0.3964361068
C 2.2102232619 -1.2025783244 0.3653244437
C -0.1717834717 1.3446954882 0.2701506165
C -0.1618099081 2.5330196225 0.1339423474
H -0.7246206195 -0.5705066211 -1.6393995546
H -1.1874557614 -1.8307705201 -0.4839691133
H -2.1274419427 -0.3266445265 -0.5861033453
H -0.6490246717 -0.3252790744 1.4084871849
H 3.1784382461 -1.643715346 0.3409244126
H -0.1437040073 3.5906017109 0.0155587924
