17
0
C -1.5094352282 -0.8296109471 0.5953142298
C -0.5292829963 0.1955088591 0.0477151767
C -1.0569393479 0.8713874712 -1.2077070733
N 0.7317398852 -0.4681374598 -0.2630451074
C 1.9188335068 0.3571602237 -0.2111040081
C 1.6490554089 -0.6504774289 0.8408154388
H -1.6956264558 -1.6065530835 -0.148872417
H -1.114189189 -1.307942948 1.4935974301
H -2.4603480841 -0.3590043487 0.8520078398
H -0.3626231217 0.9688073851 0.8194571338
H -1.2327740335 0.1282381402 -1.9880594195
H -0.3411621989 1.6017811247 -1.5900553466
H -1.9956534783 1.3902011324 -1.0043200129
H 1.7950475058 1.4018482453 0.0642451733
H 2.6643997282 0.1701345396 -0.9746666914
H 2.1931038619 -1.5872479712 0.8590035417
H 1.3458542369 -0.2760929344 1.8156741118
