19
0
C 2.3141846836 0.2138911594 1.3609112346
C 0.852657743 0.5424344626 1.0938914924
C 0.3325938725 -0.0856603431 -0.1957706829
O 0.4675789843 -1.4942272622 -0.1858889986
C -1.1210041773 0.2988064195 -0.4801623275
C -1.5804382676 -0.1393251832 -1.858284486
O -1.8915273669 -0.323236893 0.5455828554
H 2.4624820577 -0.8645338254 1.4243742859
H 2.9555230145 0.588864899 0.5589612857
H 2.6555023697 0.6606534565 2.2962127594
H 0.2267460014 0.2019156767 1.9239862418
H 0.7176225779 1.6272261942 1.0281542382
H 0.9452918402 0.2633912629 -1.033995876
H -0.2238229382 -1.8273651461 0.3956789129
H -1.2109941107 1.3901442095 -0.3917223201
H -1.4324689463 -1.2123094363 -1.9855050863
H -2.6383412607 0.0928130006 -2.0093406339
H -1.0164305687 0.3819295222 -2.6339664664
H -2.8151555079 -0.3154121737 0.2917570378
