14
0
C -0.5896988992 -1.5817567719 0.0301268187
C -0.2292874059 -0.1627909839 -0.4113651197
C -0.8665815338 0.8839629943 0.5118534549
O -0.6028888216 2.2046782906 0.1108376035
C 1.2215657187 0.0375621016 -0.4518038489
C 2.4039163803 0.234618411 -0.4518344977
H -0.2186754532 -1.7795881699 1.0374315688
H -0.153978755 -2.3215313695 -0.6408928055
H -1.6732920954 -1.7142087737 0.0298534772
H -0.6153405883 0.0125965574 -1.4206039495
H -1.9514556243 0.764433294 0.4860466876
H -0.5316237699 0.7034405838 1.5423611714
H 0.3508243868 2.3253846638 0.0924616482
H 3.4565164612 0.3931991722 -0.4644722092
