13
0
O -0.2569920614 -0.5785071359 1.7860554561
C 0.3439617429 -0.8879216322 0.5520909917
C -0.6702389618 -0.8205572452 -0.6056052975
C -1.2702877151 0.5037138912 -0.7300615427
C -1.7548262396 1.5971702462 -0.7870010874
C 1.5209544834 -0.0487972884 0.2801953461
C 2.4697270358 0.6449065292 0.0551030466
H -0.5546151578 0.3363371581 1.7510777287
H 0.6762000138 -1.9245534495 0.6421498777
H -1.4533591765 -1.5556577823 -0.4084082769
H -0.1765726918 -1.0962022568 -1.5400659131
H -2.1879948878 2.5671113322 -0.8550714538
H 3.314043616 1.2629576336 -0.1404588752
