9
0
C -1.2981168112 0.3464986229 -0.1430004012
C -0.2450114884 -0.7216288655 -0.0422393098
O -0.4915403817 -1.8928678081 0.0869379923
C 1.1383714669 -0.2488450593 -0.1135189918
C 2.2630225799 0.1590014634 -0.173690603
H -1.2018467506 0.8677168637 -1.0978745361
H -1.1488579497 1.0873736288 0.6450841403
H -2.2850545521 -0.1030168059 -0.0589307543
H 3.2690338867 0.50576796 -0.2252715892
