15
0
C -2.3867516241 -0.1971420884 0.0385746735
C -0.920631707 0.0932057301 -0.0186047066
C -0.3325134165 1.2995952909 -0.2953802054
N 1.0241789043 1.1319848612 -0.255539023
C 1.3223991531 -0.1642495232 0.0429641713
N 2.6789285684 -0.5506413476 0.1272071459
C 0.1361955731 -0.8351764184 0.1971527308
H -2.6690127308 -0.9623803317 -0.6885954691
H -2.6857880858 -0.5602874149 1.0248004878
H -2.9736086783 0.6967810075 -0.1773333046
H -0.7771913285 2.2562904851 -0.5185833938
H 1.7239045876 1.8311921988 -0.4212697639
H 2.9196418754 -0.8847078045 1.0492528284
H 2.9065352844 -1.271302746 -0.5423495525
H 0.0337136248 -1.8831618989 0.4377033811
