16
0
C 1.5864751007 -0.6549311265 0.9153030084
C 0.4370321099 -0.1870630549 0.0815816468
C 0.5535314942 0.7498874668 -1.0747662442
C -0.2920838714 1.1340138367 0.1032584032
C -1.6475061517 0.3769595003 0.1695533535
N -1.8750625121 -0.5509927856 -0.9106446403
C -0.9400873812 -0.9229435343 0.1235256007
H 1.2643072675 -0.8818190936 1.9349593592
H 2.3655014271 0.107414992 0.9740909126
H 2.0325112089 -1.5612370508 0.4966580808
H 1.5010280843 1.2739022319 -1.1188126901
H 0.1447643802 0.5486608247 -2.0590916916
H -0.0727094966 2.0021086441 0.7087173225
H -2.4867100302 0.6944976532 0.7725596514
H -1.4634122994 -0.2928448402 -1.7974164672
H -1.1075793304 -1.8356136636 0.6805243945
