11
0
O 2.6191689615 0.0596113931 -0.2142784857
C 1.4290859425 0.1068252335 -0.1190482214
N 0.6023554927 -0.7330996006 0.5859173931
C -0.7774549918 -0.5471760644 0.2010871925
C -0.6985685155 0.8877192871 -0.3248380598
O 0.6616753661 1.0541333612 -0.7184290328
H 0.974828843 -1.6269671185 0.8508984078
H -1.0882856482 -1.2500437143 -0.5793254195
H -1.4585759212 -0.6359421251 1.0475061301
H -0.9280393506 1.6146094571 0.4579698841
H -1.3361901785 1.070329891 -1.1874597885
