11
0
C -1.3067666416 -0.2735732194 -0.0501678482
C 0.1340310412 0.1419286741 -0.172092054
C 1.2308045917 -0.6486833476 0.3956652917
O 0.9660894112 -0.6546035747 -0.9945030444
C 0.3496705151 1.5779894484 -0.317091248
N 0.4894463132 2.7118572428 -0.4164034669
H -1.8620928541 0.022897483 -0.9404121975
H -1.3657286314 -1.3560341768 0.0572817662
H -1.7670283285 0.1985581528 0.8185248885
H 2.1505552992 -0.1563237469 0.6948369308
H 0.981019284 -1.5640129357 0.9243609819
