9
0
N -1.6884358797 -0.9739777059 -0.1774674091
C -0.7640277027 -0.2061286326 0.1546159288
O 0.5175555651 -0.6254848399 0.4628471691
C 1.5586700912 -0.0558674237 -0.2116094294
O 1.4428681097 0.6920558491 -1.1231784201
C -1.0069173891 1.2081116466 0.3672903934
N -1.1952578279 2.3191144977 0.5740411805
H -1.3601967462 -1.9340139042 -0.2670187886
H 2.4957417795 -0.4238094871 0.2204793754
