12
0
C -1.6074767393 0.1038121572 0.0652650519
C -0.1609255413 0.5736599731 0.0310003951
C 0.817375623 -0.5952461559 0.1801311454
C 2.2131167458 -0.1656699059 0.1481863966
N 3.302995607 0.1912202695 0.1218071873
H -2.292639087 0.943946213 -0.0520721788
H -1.8126829247 -0.6068218163 -0.7387910775
H -1.8432735819 -0.3877580719 1.0120098226
H 0.0458402549 1.0924165798 -0.9078363081
H 0.0225786492 1.2951874854 0.8303205478
H 0.6471616172 -1.1204918115 1.1234827817
H 0.6679293771 -1.3242549163 -0.6204099102
