12
0
O 2.5034133115 -0.6596530853 -0.0618881128
C 1.7282466169 0.0230909701 0.5469828018
C 0.4568117194 0.5753770344 -0.0503692153
C -0.4299073895 -0.4041268652 -0.8268111412
C -1.4605021104 -0.1005989892 0.2678075683
O -0.5501568526 0.78882248 0.9441200754
H 1.8961953277 0.3003669971 1.6082765949
H 0.7107823842 1.501664806 -0.5824692624
H -0.0480821778 -1.4225215384 -0.8550521881
H -0.7019383141 -0.0894734683 -1.8308693566
H -1.7476565654 -0.9396148591 0.9055975273
H -2.35720595 0.4266665176 -0.0653252911
