12
0
C -2.5724320783 0.2896411729 -0.4776490141
C -1.1938688233 -0.1059761669 -0.2360291599
C -0.0612600043 -0.4512036655 -0.0375776243
C 1.3205674758 -0.8439235378 0.2095732031
O 1.6778307659 -1.9901925212 0.0974745708
C 2.2486950051 0.2721009154 0.6094632724
H -2.6540765403 1.3701197375 -0.6010919692
H -2.9574167368 -0.1936166754 -1.3764305693
H -3.201395436 -0.0083928322 0.362676735
H 2.2618637937 1.0376076414 -0.1690940314
H 1.8808802343 0.7454692198 1.5221481532
H 3.2506123441 -0.121633288 0.7668644871
