14
0
C -2.1452606818 0.9441153732 -0.4344350558
C -1.5717889365 -0.449963486 -0.6923489191
C -0.1389226758 -0.5301125786 -0.4141074765
C 1.0355658428 -0.5856144186 -0.1755885892
C 2.4704831618 -0.6167710012 0.1187398969
O 2.8313148461 0.1851347162 1.226442144
H -1.6543234379 1.6876914926 -1.0633443711
H -3.2144559378 0.963189329 -0.6504574175
H -2.0006467657 1.2346026937 0.6068274989
H -2.0948949631 -1.1878274863 -0.0784723152
H -1.7435110475 -0.7359515097 -1.7335355833
H 3.0275728785 -0.3205733343 -0.7786392695
H 2.7734762229 -1.6349654498 0.3684167449
H 2.4253914941 1.0470456599 1.114731484
