16
0
C 3.031457326 0.6897375144 -0.2946867438
C 1.6611220106 0.2501097488 -0.056177454
C 0.5361239807 -0.1142846499 0.1448139302
C -0.8488048655 -0.5414889843 0.3750059036
C -1.489682264 -1.0394453291 -0.9231282168
C -1.6693740363 0.5853753613 1.0075896185
H 3.6848431164 0.3915418038 0.5268188203
H 3.4254909003 0.2547362442 -1.2145584989
H 3.0806032783 1.7759813734 -0.3874006537
H -0.8187511376 -1.3785687006 1.0810420323
H -1.5400270128 -0.2335192249 -1.6581628156
H -2.505487055 -1.3931354993 -0.733746489
H -0.9148805967 -1.8578898206 -1.3574871773
H -1.7237614579 1.4426288657 0.3333658854
H -2.6871142188 0.2467837064 1.2133359
H -1.2217579677 0.9214375907 1.9433759585
