11
0
O 2.1355613687 0.5981069592 -0.0587722795
C 0.8483354359 0.1814891939 -0.0231136941
C 0.2646485723 -1.0549943304 0.0002494293
C -1.1444252029 -0.8276633351 0.0352230765
C -1.3531071398 0.5184312831 0.0314614752
N -0.1184424504 1.1307229114 -0.0046476302
H 2.7067623121 -0.1712422086 -0.06915131
H 0.7752604152 -2.0047637066 -0.0063643144
H -1.9130544881 -1.5834533976 0.0613198291
H -2.2616846254 1.0960693444 0.0502342683
H 0.0601458024 2.1172972864 -0.0164388501
