10
0
O 2.1922569543 -0.5825543295 -0.582076913
C 1.5145267142 0.2343434814 -0.0201250307
N 0.2919724327 -0.0238476812 0.5659096727
C -0.9435485041 0.5959873181 0.1500937789
C -0.7014070347 -0.8649485549 -0.0385869427
H 1.8395216324 1.2778876761 0.1364891353
H -1.5948941891 0.9384857948 0.9451417704
H -0.9197793509 1.2217868847 -0.7361574394
H -0.4939803053 -1.2218315544 -1.0413374736
H -1.1846683495 -1.5753090355 0.6206494423
