19
0
C -2.3748526354 0.4551683938 0.2449374173
C -1.0547725326 -0.2857461288 0.3658398245
C -0.6568569479 -1.0551037186 -0.8951451157
O 0.7602831628 -1.1146425305 -0.9182563392
C 1.3082877124 -0.3275660734 0.1389686161
C 2.5613201099 0.3631734039 -0.3497598229
C 0.1756126151 0.5928866694 0.5721729971
H -3.1980182012 -0.2326324634 0.0386341851
H -2.3359572237 1.1842797816 -0.5686938494
H -2.614471385 0.9911402475 1.1653413537
H -1.1162582441 -0.9928094405 1.2002147739
H -1.0636048639 -2.0702672895 -0.9141880884
H -1.0098006387 -0.532106228 -1.7937436195
H 1.5669509661 -0.9993923315 0.9709861066
H 3.2883662432 -0.3689517395 -0.7029342656
H 3.0194037165 0.9392356074 0.4572931974
H 2.3252516756 1.0396937056 -1.173510553
H 0.1307744996 1.4664197499 -0.0878675913
H 0.2883419713 0.9472203848 1.5978179738
