11
0
N -1.9827611571 -0.3639662321 0.2581792775
C -0.6128141141 -0.2008558333 0.0925979579
N 0.1856908547 -1.2465437156 -0.0085326154
N 1.4229468348 -0.7210669502 -0.0827883673
C 1.4218168138 0.6208428483 -0.0440282812
C 0.1126425288 1.0131960541 0.0735918623
H -2.5374578934 0.325365125 -0.2214248853
H -2.284048599 -1.3006202105 0.0386733475
H 2.2088495976 -1.3370915833 -0.1624293749
H 2.3339301072 1.1932955323 -0.0943788819
H -0.2687949736 2.0174449652 0.150539961
