12
0
C 1.4264188932 0.3419649378 0.3186354038
C 0.4191693957 -0.7718124918 0.3477964098
O -0.7750282948 -0.491248662 1.0321072396
C -1.5857484214 0.1840168781 0.0976647072
O -0.7199249141 0.9229085422 -0.7335887126
C 0.4557264273 0.1578072982 -0.8126640695
H 2.4619030462 0.0800171968 0.1399725523
H 1.2510897093 1.1774819258 0.982950853
H 0.7052589379 -1.8150165594 0.3129228963
H -2.1602841539 -0.5392965089 -0.5002536356
H -2.249687443 0.8676010342 0.6259240127
H 0.7711068174 -0.1144235911 -1.8114676568
