14
0
C 1.4187161171 -0.5770997422 0.8096361034
C 0.4783065093 0.4707801009 0.253879852
O 1.2654690377 1.4455907627 -0.4067828577
C -0.5161400199 -0.1228364812 -0.7084754055
C -1.890410276 -0.4102080951 -0.316843475
O -1.5812037701 0.7392543891 -1.0888834346
H 1.9725692919 -1.0564786111 0.0001848037
H 2.1366006347 -0.1132968267 1.4857317443
H 0.8646007878 -1.3415220505 1.357040892
H -0.0834486839 0.9396930284 1.0742016856
H 0.6703467733 2.0964134713 -0.7873800381
H -0.0795830888 -0.6780398188 -1.5376315044
H -2.2075921344 -0.2100121567 0.703345424
H -2.4482311786 -1.1822379701 -0.8380237898
