16
0
C 1.8285766191 -0.7948625921 -0.0096484572
C 1.4439044168 0.6512715707 -0.0620072821
N 2.2624650209 1.5383690027 -0.422479931
O 0.1778890521 0.9967502149 0.3143934407
C -0.765101864 0.00180587 0.6035519497
C -1.5194982881 -0.6273109266 -0.5230477882
C -2.1800684718 0.3874604967 0.3720896505
H 1.7426824589 -1.1843856891 1.0067206705
H 1.1853459022 -1.398730875 -0.650711467
H 2.8593857334 -0.8835729714 -0.339321886
H 1.8229986569 2.4564112575 -0.3905908805
H -0.5305398299 -0.598732981 1.4755675006
H -1.2590878322 -0.3050926959 -1.5229267873
H -1.8004597854 -1.6685368094 -0.4341255265
H -2.3445957348 1.3740688095 -0.0394067767
H -2.9238960543 0.0550883184 1.0831183037
