15
0
C -2.8589993982 -0.0037197833 -0.2166689244
O -1.6305555527 -0.2105294357 0.4776654811
C -0.5185245611 0.066822993 -0.2145920002
O -0.5285399558 0.4657734131 -1.3489491589
C 0.713996152 -0.18763946 0.6082971088
C 1.9876554804 0.0995426705 -0.1563164734
O 3.0667815832 -0.1807455373 0.7161371225
H -2.9095013834 -0.6358619323 -1.1033393677
H -3.6439583636 -0.2701804225 0.4861659083
H -2.9577998171 1.0385879001 -0.5203591219
H 0.6654799609 0.4271875578 1.5102451936
H 0.6998099729 -1.2258360175 0.9481367883
H 2.0283612013 -0.5238862257 -1.0562570365
H 1.9978788533 1.145732964 -0.481258789
H 3.8879158273 -0.0052486844 0.255603133
