12
0
C 1.4424482632 -0.2384446348 0.1881114276
C 0.0030915373 0.1738659378 0.0136648421
C -1.0519563661 -0.7999575105 -0.3692259206
N -0.9491650204 -0.3306839457 1.0030298862
C -0.1970112713 1.5354036173 -0.447340039
N -0.353073945 2.6188008966 -0.7937280403
H 1.9787584008 -0.1844566616 -0.7601216574
H 1.477173475 -1.2613807859 0.5609540615
H 1.9424584868 0.4091635751 0.9090129946
H -1.8700716757 -0.4481040933 -0.9865973498
H -0.7593826275 -1.8313586201 -0.5275127471
H -1.6632692571 0.3571522247 1.2097525422
