15
0
C -0.8462382923 -0.8429531021 0.4872820571
C -1.1336301071 0.6204475475 0.0714149657
C 0.1811627475 1.1565657847 -0.5296874651
C 1.2614300672 0.2101603064 -0.0047746209
C 0.5655994467 -1.1490166693 -0.0298960814
H -0.8676960133 -0.9342716894 1.575838866
H -1.5892795261 -1.5413667018 0.0998837393
H -1.9534574992 0.6870702892 -0.6452161407
H -1.4311013254 1.2121627079 0.9391347895
H 0.1468541466 1.0940180258 -1.6211442921
H 0.3659090698 2.2014697697 -0.2756553045
H 1.5226949838 0.4725884935 1.0258218788
H 2.1803034673 0.2379416453 -0.5931314129
H 1.0780977695 -1.9102521844 0.5607227565
H 0.5193510648 -1.5145642233 -1.0605937352
