14
0
C -1.3973879434 -0.4340422879 0.3713951129
C -0.6540695811 0.4809060142 -0.5494762384
C 0.4770111523 1.3300197177 -0.0386393278
O 1.3667945627 0.6227029636 0.8298371978
C 1.5791656328 -0.6858370435 0.5737041976
N 0.8527567069 -1.4840322988 -0.0737610313
C -0.3839893705 -0.991618765 -0.5938599101
H -1.1234162146 -0.4397456828 1.4194626304
H -2.4446086034 -0.6184814383 0.1722204035
H -1.2006752757 0.9242733324 -1.3736387812
H 0.1237183633 2.184220597 0.540314888
H 1.0606182066 1.7049293615 -0.8856587828
H 2.5015780299 -1.0245031265 1.0371656756
H -0.7574956656 -1.5687913439 -1.4290660342
