11
0
O 2.1688036834 -0.683194427 -0.3960473031
N 1.4824458207 0.3647040273 0.2060510672
C 0.2423031318 0.1968838402 0.1164693212
C -0.939704086 1.0007716508 0.572229752
O -1.8136940598 0.0083742801 -0.0012310288
C -0.7159566997 -0.8059898894 -0.4561807798
H 3.0891208814 -0.4448337103 -0.2670822026
H -1.0565814982 1.9804376055 0.1014157607
H -1.0655519265 1.0895000561 1.6546754976
H -0.699938577 -1.7932115514 0.0138567411
H -0.6912466702 -0.9134418821 -1.5441568257
