10
0
O -1.2691340276 1.8058763048 0.2507164814
C -0.5807357465 0.8307217999 0.1157810664
C -0.9623627778 -0.6400027729 0.0119369015
N 0.2813267027 -1.3827317245 -0.1461221757
C 1.2084427687 -0.5171249219 -0.1335072439
N 0.8002771194 0.7998444101 0.0166000825
H -1.4978027275 -0.9582469899 0.9089043084
H -1.6285212607 -0.8019126062 -0.8380043801
H 2.2624094069 -0.7514040707 -0.2318471667
H 1.3861005424 1.6149805715 0.0455421262
