16
0
C 1.9157031981 0.4105809284 0.0284579137
N 0.8963421573 -0.5404834481 -0.364726975
C 0.007323803 -1.0694071184 0.6506232994
C -1.1811737314 -0.1041057427 0.8347465535
C -0.967137462 1.0248439674 -0.1579481026
C -0.3192778978 -0.0554564084 -1.0596670256
C -1.1477032073 -1.1280552304 -0.2754665138
H 1.5664100138 1.1949411854 0.7129100838
H 2.3259090706 0.8853948479 -0.8654285114
H 2.7283842924 -0.1266589114 0.5212938916
H 0.3166082581 -1.7696748391 1.4149411636
H -1.7921926811 -0.1139622829 1.7265439556
H -0.3746365479 1.8985467873 0.1232772414
H -1.9165745433 1.3483121905 -0.5850818525
H -0.2471902216 0.071867778 -2.1372677607
H -1.8107945014 -1.9266837033 -0.5672073608
