15
0
C -1.5799802876 0.0876102932 0.8485308263
C -1.1054532701 -0.0007847779 -0.5730909354
O -0.226370351 0.9198715712 -1.138554338
C 1.0359332503 1.0178109098 -0.5055505925
C 1.5473385159 -0.3422343059 -0.0889871503
O 0.6878852194 -0.913734407 0.8788972878
C -0.6300114876 -1.0055707294 0.428966336
H -1.1476269544 0.8530271527 1.4799756767
H -2.6121167244 -0.1574123523 1.0618452905
H -1.8198594553 -0.3287905245 -1.3170680148
H 0.9757312416 1.6696901674 0.375800934
H 1.7061539458 1.4810490539 -1.2310597976
H 1.629699607 -0.9968064234 -0.9664320344
H 2.5283204626 -0.2559141733 0.3792563191
H -0.9896437124 -2.0278114545 0.3674701924
