17
0
C 1.9396796523 -0.213747262 -0.5399357178
N 0.8848298613 0.6720577545 -0.0970960456
C 0.4030602572 0.5277047209 1.2632042188
C -0.4656494102 0.1692495092 0.1131424777
C -1.5472416186 1.1284409469 -0.3213971655
C -0.7986498697 -1.2832756715 -0.1404376353
H 1.9619752617 -1.1858561432 -0.0301460585
H 1.8412421987 -0.3893806778 -1.612990646
H 2.8999715442 0.2753625697 -0.3676022848
H 0.2422547338 1.4475668843 1.8161544983
H 0.8074471507 -0.2919999482 1.8537131412
H -2.4764523217 0.9438037555 0.2236911439
H -1.7526579747 1.0139141806 -1.3890181884
H -1.2363791033 2.1579448256 -0.1455860174
H -1.741439793 -1.5370761543 0.3482365724
H -0.9226779018 -1.4681703351 -1.2110842957
H -0.039312667 -1.9665389551 0.2371520027
