11
0
C -1.8704747906 0.2303626145 0.2049636997
O -0.5832920131 0.5946970608 -0.222147133
C 0.3698081617 -0.3891178743 0.0877462495
C 1.6921404428 0.0331510975 -0.3636468396
C 2.7857091704 0.357419411 -0.7230600707
H -2.208548888 -0.6965579659 -0.2769061244
H -2.5443116503 1.0390530811 -0.0720874824
H -1.9091026839 0.0912329495 1.2935560634
H 0.4007283563 -0.5702444144 1.1721778925
H 0.1115471939 -1.3436484543 -0.3937190927
H 3.7557967009 0.6536524944 -1.0456471777
