12
0
C 1.5202698973 0.6724057315 -0.079267081
O 1.6326595536 -0.2654537686 0.9786307632
C 0.7923645365 -0.5912119106 -0.1143808841
C -0.6634454077 -0.715173627 0.1984756614
C -1.6229881165 0.3677220234 0.013351945
O -1.5356845716 -0.698330186 -0.9178718592
H 0.9977790888 1.5899045367 0.1725355576
H 2.409993419 0.7902081073 -0.6906835373
H 1.1752338695 -1.3843845433 -0.7544303617
H -0.8934506219 -1.481977544 0.9363183725
H -1.2849124045 1.3307268719 -0.356310228
H -2.5278192424 0.3855643086 0.6136316519
