19
0
C 2.4291886362 0.1258688104 -0.157638391
C 1.0511760721 -0.3361018342 0.2710800172
O 1.1594608625 -0.76282209 1.6227217066
C 0.0218597787 0.7563378424 0.1294906392
C -0.7312646584 0.9334564277 -1.156012625
C -1.456022834 0.4675526716 0.072117334
C -2.0286208943 -0.9261157241 0.1511718307
H 2.4224922744 0.4213326579 -1.2079898579
H 3.1570149566 -0.674513241 -0.0209797813
H 2.7430705144 0.9806190208 0.4448269921
H 0.7601542091 -1.188562461 -0.3589203619
H 0.2754141208 -0.9407974058 1.9496607467
H 0.2981824319 1.6650619165 0.6557365518
H -0.558522068 0.1961862974 -1.9325790852
H -0.9061725364 1.9353064533 -1.5249188402
H -2.0734638047 1.2184153901 0.5534772782
H -1.3837487257 -1.6622063017 -0.3310957199
H -2.9990165658 -0.969042663 -0.3476035994
H -2.1811817696 -1.2399757671 1.1874551652
