18
0
C -1.2797040389 0.7267385441 -0.092179278
C -0.0278191878 1.3976280462 0.4688401923
C 1.2428251499 0.7856837683 -0.1167969198
C 1.2797495757 -0.7266912689 0.0923252158
C 0.0279106721 -1.3975897295 -0.4687854351
C -1.2428161546 -0.7856751666 0.1166849731
H -2.1759660129 1.1513811604 0.3676013156
H -1.3506931647 0.9389567498 -1.1657929553
H -0.0142230179 1.2781723015 1.5589151078
H -0.0550854719 2.4731204736 0.2744316647
H 1.2831060351 1.0006540111 -1.1914422364
H 2.1273164262 1.250735039 0.3263416281
H 2.1760370366 -1.1514362394 -0.3673142758
H 1.3505527106 -0.9387992572 1.1659803386
H 0.0143777792 -1.2782090841 -1.5588687955
H 0.055081765 -2.4730894204 -0.274384973
H -2.12720033 -1.2506348437 -0.32680756
H -1.2834497718 -1.0009450838 1.1912519924
