15
0
C -1.5244354925 -0.6177482858 -0.1331597022
C -0.4013312591 0.4052162267 -0.090344609
O -0.872272191 1.7162585198 -0.2721265632
C 0.5633415781 0.2526221908 1.111092323
C 1.610342834 -0.4530631366 0.2085010633
C 0.7894913193 0.0171008643 -0.9834081287
O 1.0034399429 0.1800534186 -2.1466225821
H -2.255931687 -0.3843155092 0.6419396682
H -2.0224405165 -0.5926772234 -1.1047086417
H -1.1528035389 -1.6317358458 0.0303687034
H -1.0708463833 1.8365580676 -1.2052261042
H 0.9030112396 1.2292601577 1.4509535402
H 0.1822608134 -0.3186900325 1.95552588
H 2.6393175139 -0.0976781962 0.2391663853
H 1.6088558269 -1.5411612161 0.2980487675
