14
0
O 1.4609273861 2.2221785045 0.1698322856
C 0.7993869187 1.2061340131 0.0911514406
C 1.4593498041 -0.1551277494 0.0516794221
C 0.5261444858 -1.3186439458 -0.0436091822
C -0.7882540655 -1.1848578937 -0.0905820246
C -1.4800085757 0.1366375516 -0.05277022
N -0.555233454 1.2454928094 0.0338935327
H 2.0849764404 -0.2260068854 0.9458077681
H 2.1571430862 -0.1416407612 -0.7901279723
H 0.9686055998 -2.3087582319 -0.0746170149
H -1.4308467499 -2.0552625601 -0.1591315254
H -2.1655249612 0.1594589331 0.8030803308
H -2.1013272901 0.2428637946 -0.9502726807
H -0.9353386246 2.1775324212 0.0656658401
