8
0
N 1.0862239477 -0.4252550188 -0.1359608595
C 0.0765894661 0.4984187104 -0.3033807658
O 0.2605552886 1.6933354063 -0.2397409139
N -1.1607631633 -0.0574130026 -0.5486637206
H 1.0030905303 -1.3139725466 -0.5976343626
H 2.006531988 -0.0208923785 -0.1427927851
H -1.3539049961 -0.9742864926 -0.1854443783
H -1.9183230613 0.6000653225 -0.484353519
