15
0
C -0.9543284209 1.1359789086 -0.1139184319
C -0.2007939724 -0.1689387065 -0.1153785575
C 1.2154401534 -0.0976586326 -0.6626829628
C 2.0851311568 0.7383647166 0.1627647687
N 2.7489634027 1.4003899785 0.8237064605
C -0.5107217067 -1.1946259888 0.8995122067
N -0.8871875904 -1.3930594349 -0.5024384852
H -0.4216810416 1.8923000391 0.4658261502
H -1.0743769159 1.5143529259 -1.13245582
H -1.9459124368 1.0130848261 0.3248748151
H 1.2064744539 0.3071595345 -1.6780365239
H 1.6362197087 -1.1023169572 -0.7170781886
H -1.2883372129 -0.9682243571 1.6203407164
H 0.2671794667 -1.8564004344 1.2628585856
H -1.8760690446 -1.2204064177 -0.6378947336
