21
0
C -1.563863721 -0.6904507334 -1.089909208
C -1.126797478 -0.3161813199 0.3233575731
C -2.2307798269 0.45343315 1.0425851878
C 0.1690930863 0.4971913531 0.334882645
C 1.3731936615 -0.1861722052 -0.2916612576
C 2.6229475795 0.6751175421 -0.204994824
O 1.5547320333 -1.4215223947 0.3901001025
H -2.517897876 -1.2217844168 -1.0728402049
H -0.8378488465 -1.3399349863 -1.5816540988
H -1.6935745169 0.2028204967 -1.7096639194
H -0.9371796358 -1.2416001506 0.8749476521
H -3.1542275254 -0.1281145207 1.0863687004
H -2.4548221836 1.3908972233 0.523812753
H -1.9425487669 0.7012583059 2.0668017687
H 0.4243922244 0.7461298038 1.3709151613
H 0.0052570971 1.4473886289 -0.187472149
H 1.1596089318 -0.3862784875 -1.3511744633
H 2.8632458873 0.8898149617 0.8385238965
H 2.482549039 1.6211155981 -0.7320603816
H 3.48080237 0.1697829421 -0.6568092398
H 2.3237184667 -1.8629107902 0.0259443058
