11
0
C -1.5868876894 -0.3444443182 0.0618733864
N -0.1716931355 -0.0689330578 0.0089054968
C 0.4683588493 1.1078334552 -0.0075650152
N 1.768117752 0.9243991636 -0.0650406273
C 1.870447015 -0.4251244205 -0.0822253494
N 0.7233745222 -1.0676195685 -0.0393278497
H -1.8966464022 -0.8828335133 -0.8331708929
H -1.8147228213 -0.9483917736 0.9392010363
H -2.1255041063 0.5995856887 0.1208206622
H -0.0465321371 2.0563073004 0.0228678684
H 2.8116881533 -0.9507789563 -0.1263387155
