15
0
C 1.9362088209 0.3927185809 -0.2169469896
C 0.550169073 -0.1996958163 -0.3345279654
C -0.2253694722 -0.4266367727 0.9990819185
O -0.5028627612 1.0013596107 1.0205705077
C -0.6353302359 0.8100073884 -0.4155282788
C -1.8339454901 -0.1357270301 -0.4904872286
C -1.5503840733 -0.9900723547 0.4861922254
H 2.6518548911 -0.3647834841 0.1104385122
H 1.9511532115 1.2152985522 0.4978298198
H 2.2775589635 0.7688030519 -1.1840632159
H 0.513283714 -1.0257043437 -1.0458502014
H 0.2295001795 -0.8181323158 1.9064168443
H -0.6135038239 1.7258656951 -1.0022222029
H -2.6678749265 -0.0936524756 -1.1742165497
H -2.0804580704 -1.8596482864 0.8433128046
