9
0
O -2.5042179143 0.3234479761 -0.1285001719
C -1.3362829065 0.463512028 -0.3447412063
C -0.3129704486 -0.6386405103 -0.1211614481
C 0.9889177578 -0.1207324967 0.2781671294
C 2.0419504561 0.3406568237 0.609751923
H -0.9292154013 1.4125813644 -0.7464163849
H -0.2198068112 -1.1796933968 -1.0698423596
H -0.7105455029 -1.3408693987 0.6130200182
H 2.982170771 0.7397376102 0.9097225001
