15
0
C -1.8900986869 -0.640542631 -0.2257599791
C -0.6842707951 0.2046645958 -0.570026257
N -0.5086643612 1.4344759579 0.2518008802
C 0.9080646503 1.111947762 0.5473734515
C 0.6700055618 -0.2369004124 -0.0720107939
N 1.2556952388 -1.3461222063 -0.1345645172
O 2.490489344 -1.2987669826 0.5069358307
H -2.810074851 -0.1210739786 -0.5006413269
H -1.9155127773 -0.8426534364 0.8455063867
H -1.855367248 -1.5906653113 -0.7619946973
H -0.6526835697 0.4054198537 -1.6486751981
H -0.6417838512 2.2964822072 -0.2566551982
H 1.162316987 1.1149425468 1.6090262722
H 1.6516592883 1.7028536716 0.0021476941
H 2.8202250704 -2.1940616365 0.4075374525
