17
0
C 2.1911233084 0.4197871452 -0.6390866189
C 1.0078683225 -0.3894022246 -0.1701654405
C 0.6070454465 -0.1790642797 1.2963995966
O -0.8090288457 -0.1880434976 1.2815964795
C -1.2246957938 -0.4137040049 -0.0521085559
C -2.4757538698 0.3601809596 -0.3595004407
O -0.1630307292 0.0100281574 -0.8613769865
H 2.3783655809 0.2480755806 -1.6992793787
H 3.0874187712 0.1377457594 -0.0830968547
H 2.0037517575 1.4837859907 -0.4854311059
H 1.182928365 -1.4593745565 -0.3545348513
H 0.9544403627 0.7885206689 1.6717388077
H 0.9877406583 -0.9702394206 1.9482864546
H -1.3795388049 -1.4976431772 -0.1942720607
H -2.2878791702 1.4250296899 -0.2227037783
H -2.7849814193 0.1754720033 -1.3883910504
H -3.2757739402 0.0488452057 0.3119257839
