17
0
C -2.292229969 -0.2025104537 0.1850900191
C -0.9095617837 0.0698587512 -0.3668376698
C 0.0357359135 0.9909898089 0.4486154626
C 1.1525546505 0.0123219068 0.1289716265
C 2.4752562057 0.2806119853 -0.413192281
O 2.2969262434 -0.2011333664 0.9159266925
C 0.1529636912 -1.0570928572 -0.2766600448
H -2.2337800237 -0.5671606738 1.2140319743
H -2.9026661752 0.7034967967 0.1855944624
H -2.8142394174 -0.9574308886 -0.407375612
H -0.9783936935 0.4306563396 -1.395814744
H 0.151900719 2.0263345871 0.1281707853
H -0.2036551565 0.9672275578 1.5146870494
H 2.9283978234 -0.4257555941 -1.103958243
H 2.82898116 1.3055423305 -0.4897594016
H -0.0500675237 -1.7323122956 0.5581729772
H 0.3618773361 -1.6436439346 -1.1713058213
