14
0
C -1.6967604456 -0.6503883892 0.1315966342
C -0.7318186974 0.4252856021 -0.2941523798
O -0.1838402765 1.192325353 0.8108258546
C 1.1310867211 0.9882402407 0.3130074471
C 1.4944844155 -0.4514454754 0.3628836171
C 0.6680735495 0.0752180885 -0.7825305729
H -2.5413622001 -0.208600223 0.6632706374
H -1.2194134519 -1.3771940614 0.7894219354
H -2.0819007493 -1.1724734413 -0.7470234125
H -1.214071807 1.1205083273 -0.9890211673
H 1.8218098711 1.8206741241 0.3274372932
H 2.5191561294 -0.6851137047 0.1008232636
H 1.0572382159 -1.0821910831 1.1281680246
H 0.9773187254 0.0051546426 -1.8147071745
