11
0
N 2.3336420566 0.0005933677 -0.2242876838
C 1.0816668755 -0.0152707356 -0.1003393483
C 0.1555490017 1.1106187124 -0.2936078036
C -1.0788817788 0.6869748571 -0.0678580164
C -1.0402391082 -0.7638895964 0.2912778809
O 0.3380712644 -1.1102247678 0.2434716473
H 2.730789272 -0.9157824208 -0.0336436798
H 0.4919262844 2.0961991591 -0.5741322157
H -1.9936822002 1.2601782115 -0.1217786465
H -1.593797349 -1.3892155046 -0.4159325017
H -1.4250443183 -0.9601812829 1.2968303676
