11
0
C 1.3591471457 0.1391136122 0.1774665466
N 0.0635852261 0.6771852464 -0.1806194093
C -1.0656487742 0.1619111966 0.5631952551
C -0.8408480802 -0.235126648 -0.8464149719
H 1.3199029303 -0.9243427603 0.4611867948
H 1.7661838161 0.7037089538 1.0180220927
H 2.0410467162 0.2446917707 -0.6679705998
H -0.8679980502 -0.5871025186 1.3259196391
H -1.8362765455 0.8809209321 0.814453754
H -0.4937677646 -1.2496678681 -1.0257014509
H -1.4453266196 0.1887080827 -1.6395376506
