10
0
C -1.1481506876 0.2521803946 0.1360165125
C 0.1135659212 -0.5613214114 -0.0844291269
C 1.3779415451 0.2514364858 -0.0903938065
O 1.4282582641 1.442241337 0.0512184591
H -1.1115856167 0.7761101289 1.0914028143
H -2.029621606 -0.3897377536 0.1292508891
H -1.2668502991 1.0067890704 -0.6418887791
H 0.23999659 -1.335299471 0.682130811
H 0.085840737 -1.1085332131 -1.0344448517
H 2.310605152 -0.3338655676 -0.2388629217
