10
0
O 2.5513888648 0.4866978959 -0.0242406061
C 1.7198011616 -0.3294388191 0.2273861146
N 0.3479511871 -0.0931935811 0.058848207
C -0.2889849231 1.0177548989 -0.3939686537
N -1.574626073 0.8198024832 -0.4006428303
C -1.6914325444 -0.4606156068 0.0681487502
N -0.5642682657 -1.0490892494 0.3569207715
H 1.9017177775 -1.3431700911 0.6111779808
H 0.2402422976 1.908054361 -0.6945422972
H -2.6417894823 -0.9568022914 0.1909125631
