11
0
C -0.1907689441 1.1717646597 -0.0268802181
C -1.2520196272 0.2821361437 -0.0106598033
C -0.9746679253 -1.0765789069 0.0206765463
N 0.2567494347 -1.575737743 0.0360279589
C 1.2660849829 -0.7114429604 0.0201345188
C 1.0979397087 0.6648557237 -0.0110408574
H -0.3653417114 2.2409997814 -0.0515924096
H -2.2776294871 0.6291014455 -0.0219167614
H -1.7838013043 -1.8008294669 0.0346429415
H 2.2625689522 -1.1428216097 0.0330743115
H 1.960885921 1.3185529327 -0.0224662272
