11
0
N 2.2217300639 -1.0412518019 1.4222789415
C 1.7270144902 -0.5342403502 0.5209309193
C 1.0524598281 0.1093412943 -0.6205409032
O -0.1655499153 -0.5158083358 -0.9356080653
C -1.150526449 -0.417912267 0.0611136255
C -1.5873162914 0.9733107224 0.2751496738
N -1.8972424688 2.0654203895 0.4345214637
H 1.6846289609 0.0236388606 -1.5031683994
H 0.9178688632 1.1734433744 -0.3930297455
H -1.9993519168 -1.0092607669 -0.2791390158
H -0.8037151648 -0.8266811194 1.0174915052
