13
0
C -1.9200719888 -0.634898732 -0.0472139995
C -0.5959457273 -0.1135319631 -0.5492113867
O 0.1560371182 0.3370822847 0.5677659078
C 1.3896203862 0.886877441 0.2322436677
C 2.3375862159 -0.1094850899 -0.3105828202
N 3.066198132 -0.8850241134 -0.7379026034
H -2.4698721731 0.1496464666 0.4738806556
H -2.5254168988 -0.9859618432 -0.8841474632
H -1.7662978263 -1.4658182385 0.6417294985
H -0.7422009789 0.7203567686 -1.2497899329
H -0.0418013406 -0.9002703624 -1.0764071004
H 1.8201058102 1.3076366304 1.1414148752
H 1.2920592718 1.6933907511 -0.5067818599
