16
0
C -1.0457753443 -0.7978052571 -1.2100534593
C -0.9780405078 -0.3759623747 0.2354102362
C 0.3385063564 -0.1552048243 0.9458578506
C 1.6600882331 -0.3423285333 0.2463496411
C -0.5592656459 1.0091454943 0.616186797
O -0.2198768241 1.8723696374 -0.4274117975
H -0.3592114897 -0.2256185635 -1.8314758002
H -2.0504939551 -0.6366274951 -1.6052908587
H -0.8089967439 -1.8585756447 -1.3195592295
H -1.7641187244 -0.7960227659 0.8536094915
H 0.3481891408 -0.439432222 1.9931615272
H 2.4640442541 0.1516824503 0.797399899
H 1.9159055519 -1.4012224217 0.168320096
H 1.6467242433 0.0725054658 -0.7610356051
H -1.0889806869 1.4897004167 1.4347996732
H 0.5013021424 2.4333966378 -0.1362684616
