8
0
O -2.3018004933 0.1846387266 -0.0341352862
C -1.1811772395 -0.1429014098 -0.3024711112
N -0.0683988169 0.3134849615 0.3708451402
C 1.2245160835 -0.0557633303 0.0678031656
O 2.1866498478 0.3451371433 0.6582992323
H -0.9313776022 -0.8449813524 -1.1158397064
H -0.2096531578 0.9613085768 1.1341558625
H 1.2812413785 -0.7609233158 -0.7786572967
