18
0
C -0.9161296971 1.2581040861 -0.1529564001
C -0.1740395547 -0.0717791994 -0.0095167806
C -0.7916805308 -1.1130099532 -0.9438842098
C -0.2536726238 -0.5616401657 1.4373875116
C 1.2884043861 0.1081987425 -0.4135313884
O 1.9032477121 1.0696435157 0.4246533802
H -0.8753739769 1.6211863318 -1.1836150888
H -0.4774840364 2.0213193825 0.4903861478
H -1.9679830905 1.1417830141 0.1193948054
H -0.7495662084 -0.7877482504 -1.9868619306
H -0.274725436 -2.0734331863 -0.8686203264
H -1.8410394776 -1.2809020229 -0.6912925064
H -1.2949985545 -0.6984070539 1.7390689776
H 0.2580074127 -1.5208157448 1.5544328788
H 0.209734359 0.1533611794 2.1177171025
H 1.8042024209 -0.8590458807 -0.3343778986
H 1.3333159352 0.4278019668 -1.464204274
H 2.8197809609 1.1653832383 0.1658199998
