17
0
C -2.2258228404 0.2549969167 0.172106041
C -0.7341547446 0.1740152348 0.4060319748
C -0.1572156323 -1.209358918 0.1262689782
C 1.3413457395 -1.1530072765 0.066876122
C 1.9834582377 -0.0007230074 -0.0495557404
C 1.2510954488 1.3006681836 -0.1824060408
O -0.1223553321 1.1351773905 -0.4380003431
H -2.7517951362 -0.4763594955 0.788676519
H -2.451460581 0.0520466664 -0.8766209013
H -2.5982502426 1.2498882323 0.4172946894
H -0.5117884685 0.4348050061 1.453414772
H -0.5600285079 -1.5950073521 -0.8174512072
H -0.476303953 -1.904485451 0.9087516017
H 1.8941846029 -2.0844374929 0.1297413739
H 3.0677488042 0.03900292 -0.0587823261
H 1.40050572 1.9091182627 0.7245345105
H 1.6508368854 1.8736601801 -1.0224231949
