13
0
O 2.5173501657 -0.743064994 -0.2535392591
N 1.8248375991 0.43413019 0.027583674
C 0.5814179864 0.2405343243 0.0004882461
C -0.3186347534 -0.9455430586 -0.234717007
C -1.5227885723 -0.0217449524 0.0960599309
C -0.5611189579 1.1912806695 0.2528960351
H 3.4348660543 -0.4704205171 -0.1952864431
H -0.2843552613 -1.3240120478 -1.2574956111
H -0.1476084321 -1.7814649519 0.4444560483
H -2.256751304 0.0793235552 -0.7015950431
H -2.0423276513 -0.2913821216 1.0141362614
H -0.6717722344 1.9600502094 -0.512943742
H -0.5531146389 1.6723136953 1.231029751
