16
0
C 2.2161615708 -0.3595139689 0.2035098579
C 1.0390656714 0.4992578092 -0.2096092786
C -0.0811794375 -0.1596133359 -1.0550456125
N -0.9919483018 0.1127617924 0.0475523497
C -2.389266387 -0.147392043 0.2320497522
C -0.0563755734 0.6900433677 0.852132121
O -0.1156041 1.1449155339 1.9634585692
H 1.8776903267 -1.3181673917 0.6033059995
H 2.7935367626 0.1414654075 0.9813908344
H 2.8793868219 -0.5566935908 -0.6407980787
H 1.3687876731 1.4561917003 -0.6178671657
H -0.3402008206 0.3541172897 -1.9847607153
H 0.0655666364 -1.2257124341 -1.2536085723
H -2.6654123978 0.1987932869 1.227568255
H -2.9937019614 0.3858925717 -0.5067594919
H -2.6065064832 -1.2163459948 0.1574811757
