16
0
C -0.8534390064 -0.2264959985 -1.2685242051
C 0.1640717535 -0.0131825509 -0.1749720739
C 1.4544406357 -0.7769708974 -0.3518443215
C 0.2397651875 1.3505106591 0.4675514145
C -0.3243194235 0.2014329014 1.2323462012
O -1.6900559581 0.2599699867 1.5148808308
H -1.0972270135 -1.2880488342 -1.373498627
H -1.7772852939 0.3144840036 -1.0654385146
H -0.4617238769 0.1178917057 -2.2288648003
H 2.1344851904 -0.6147562765 0.4869283236
H 1.9714282807 -0.4603680189 -1.2617860351
H 1.267527493 -1.8516128794 -0.4305333321
H 1.2061386456 1.7435063151 0.7573155993
H -0.477828606 2.0921615318 0.1397943619
H 0.2821863015 -0.2145285785 2.0344478104
H -2.0381643096 -0.6339930687 1.5221973678
