17
0
C 2.2622189503 -0.1637316982 -0.0316429271
C 1.1234787686 0.7668101928 0.3653101241
C -0.0513339697 -0.0024951314 0.9193358775
O -1.1802563658 0.8259053001 1.2984684364
C -2.0542944218 -0.0069995255 0.5490670763
C -1.7362017258 0.060916564 -0.900618586
C -0.9344310549 -0.8413836878 0.003248789
H 1.9422043757 -0.8688740699 -0.8025752073
H 2.6177727465 -0.7441285517 0.823320185
H 3.1106568901 0.3956828824 -0.4272544325
H 0.7976606989 1.357976475 -0.4938941389
H 1.4564416961 1.4789727996 1.1257345276
H 0.2578495352 -0.5901725898 1.7915489052
H -3.0133342132 -0.2658653751 0.9773645711
H -2.4220435273 -0.4637920745 -1.5543502836
H -1.3114001477 0.9704514814 -1.3090272723
H -0.8649882351 -1.9092729913 -0.1398747227
