12
0
O -1.542347647 0.6932051841 0.587756739
C -0.9377915163 -0.2544625524 -0.2342524169
C 0.1544605481 0.1566824556 -1.1502677838
C 0.4736243403 -0.6427470348 0.1027502152
C 1.1842537252 0.0540317294 1.1989204945
O 1.9981268644 -0.4799557468 1.9041824737
H -2.1210008879 1.2380323091 0.0509257835
H -1.5856967943 -1.0696140101 -0.5442037575
H 0.2671245335 -0.3371582969 -2.105598685
H 0.4354653104 1.2030840194 -1.1319944833
H 0.7449751082 -1.6842250829 -0.0090118583
H 0.9288064155 1.1231270263 1.3307932789
