10
0
O 2.678439608 0.0498768748 -0.1465237781
C 1.4965948919 0.0278803501 -0.0821392423
O 0.7125512008 1.1135937961 0.086576115
C -0.655661163 0.746487499 -0.0459400672
C -0.6181632806 -0.7706028184 0.1150904111
O 0.7398454138 -1.0866997135 -0.1668868017
H -1.2323184509 1.2515712445 0.7264495333
H -1.0115525517 1.0572853792 -1.0302708428
H -0.8525168027 -1.0897064468 1.1327250238
H -1.2572188655 -1.299686165 -0.5890803513
