11
0
O 2.3840397098 -0.5597023053 0.0037758233
C 1.7942474961 0.4958910474 0.0009834395
N 0.4491147743 0.6110182559 -0.0028670422
C -0.3969016037 -0.5687001 -0.0045395793
C -1.8062214008 -0.1922888182 0.0001705741
C -2.9589345213 0.1273644444 0.0036206396
H 2.3084195723 1.4728638383 0.0012770124
H 0.0201980061 1.5188560148 -0.0057175765
H -0.1777889065 -1.1813743494 -0.8832375102
H -0.1727887472 -1.1865748672 0.8691184695
H -3.9873008454 0.4031205725 0.0070118713
