11
0
O -2.3038873848 0.6299228314 -0.40651011
C -1.0203603736 0.2535846218 -0.4101786154
N 0.016411718 1.0371865241 -0.3001103577
C 1.0900155914 0.1863080088 -0.3580309091
O 2.3461644255 0.6613422688 -0.2729578014
C 0.7027138047 -1.1057500097 -0.5034583336
N -0.6950755615 -1.0376546937 -0.535113488
H -2.3187443746 1.5863522628 -0.3073734194
H 2.2772864486 1.6149696861 -0.1776802283
H 1.2467514052 -2.0284178515 -0.5818510077
H -1.3412756987 -1.7978436491 -0.6339473844
