13
0
O 1.3565765314 1.9649576887 0.5987630668
C 1.7695726538 0.9631355445 0.0819338565
C 0.9942410703 -0.3173565157 -0.0499742492
C -0.4160001589 -0.2397033183 0.4592086004
C -1.5336316919 0.132636987 -0.4264002779
N -1.3266556252 -1.2629315003 -0.042779875
H 2.7974429844 0.932160394 -0.3378223637
H 1.5601169279 -1.0972594937 0.4747722973
H 1.0030772841 -0.6186699779 -1.1031084429
H -0.5114047849 0.0546209089 1.4993447873
H -1.3397411306 0.3521327354 -1.4704351314
H -2.3655412479 0.6762463577 0.0058102967
H -1.9880528125 -1.5399698102 0.6707820786
