13
0
C 0.3425043164 1.2788292264 0.159655858
C 1.1983549936 0.0947393682 -0.2189934892
C 0.4159103712 -1.1492249909 0.0056345438
C -0.9479971836 -0.7726866808 0.5313416712
C -0.7916232589 0.4231569415 -0.4134590958
N 0.2344414913 -0.3741510405 -1.2515144341
H 0.5589602475 2.1325130463 -0.4825955046
H 0.2830439024 1.5953319362 1.2034890847
H 2.265591876 0.0716574101 -0.3985315744
H 0.8839028635 -2.125161159 -0.0015220449
H -1.0861972776 -0.5814078907 1.5979591556
H -1.7067570815 -1.4677594749 0.1717332882
H -1.6501352606 0.8741633081 -0.9031974583
