10
0
C -1.6143722916 0.0557312168 -0.0030419402
C -0.1378767217 -0.0526507168 -0.1072455094
N 0.4551860866 -0.6077254092 -1.119975425
O 1.8025226778 -0.4974750152 -0.820659734
C 1.8705885116 0.1173192554 0.348855695
N 0.7280049283 0.4240976274 0.8526606334
H -2.0867408245 -0.399593428 -0.8708700104
H -1.9628543072 -0.4416629375 0.9024178003
H -1.9076321051 1.1041875887 0.059515316
H 2.8531740459 0.2977718182 0.7583431743
