10
0
O -2.5530891557 0.0471619889 -0.5243529152
C -1.5620788281 -0.9260600305 -0.2804849767
C -0.2304846319 -0.3542387655 -0.0739787078
C 0.8480628515 0.1391158142 0.1213458924
C 2.0861275603 0.7005211033 0.334783449
C 3.1650088818 1.1910131412 0.5215202066
H -2.51582248 0.7036246985 0.1743959285
H -1.5460341429 -1.5754782688 -1.1574253909
H -1.8147877288 -1.551271098 0.584854828
H 4.1230976716 1.6256114168 0.6831975003
