17
0
O 2.7801255589 -0.207138194 -0.6655487367
C 1.7067142733 -0.7072295041 0.0936404173
C 0.3710775795 -0.4374743186 -0.572636329
C -0.8330808993 -0.9077655455 0.2550110753
C -1.7711594791 0.3005183244 0.2420152362
C -0.7839268378 1.450368824 0.1307589532
O 0.2210617026 0.976196415 -0.7490485531
H 2.5606555133 0.7028387271 -0.8864604339
H 1.6959694573 -0.2657143444 1.1016032805
H 1.8607189836 -1.7839506152 0.2017285266
H 0.3802195382 -0.8777003641 -1.5741524982
H -0.5217550207 -1.1353989975 1.2786647454
H -1.2885916454 -1.8064610035 -0.1585404791
H -2.4021470637 0.3623714347 1.1287410726
H -2.4152636161 0.2798099123 -0.639261604
H -0.3564601453 1.6967973653 1.112630808
H -1.2041578995 2.3599318844 -0.2991454809
