16
0
C -2.0336408419 -0.8192007254 -0.3263028104
C -0.6633071978 -0.2029548538 -0.5361888024
O -0.8652639699 1.0910267978 -1.0482812221
C 0.1298151629 -0.18437945 0.7772712189
N 1.577893466 -0.1161395896 0.6237342896
C 2.2381585262 0.9309418275 0.1020104698
O 1.7188501612 1.9190278624 -0.3800082219
H -1.9575528595 -1.8695171672 -0.0376243724
H -2.6075514926 -0.753259552 -1.250187928
H -2.5795301714 -0.2765846433 0.4489511716
H -0.0978156218 -0.816599005 -1.2549549564
H -0.0350521087 1.5845349559 -0.962215236
H -0.215042752 0.6655061768 1.3741261084
H -0.0759149108 -1.0944820066 1.3416732827
H 2.1322571887 -0.8734021749 0.9801062676
H 3.3336974217 0.8154815472 0.147890741
