9
0
O 1.9039551105 -0.9998394705 0.2136572707
C 1.6796366905 0.0938762361 -0.2066385862
O 0.4570265035 0.6145722339 -0.3805763554
C -0.6107620583 -0.2535619543 -0.0127346744
C -1.8693438838 0.4466727525 -0.2576154585
N -2.8753397437 0.9642971378 -0.4363503489
H 2.4321747083 0.8313763418 -0.510425963
H -0.5792979238 -1.1727120444 -0.6006618203
H -0.5380494033 -0.5246812331 1.042199828
