11
0
O -2.3389895837 0.0522995978 -0.1239599329
C -1.1472627461 0.0235963051 -0.0927322206
C -0.065033139 1.10103731 -0.110745985
C 0.9781914904 -0.0149711909 0.155063154
C -0.1217066478 -1.1010598482 0.0308640958
H 0.0171417835 1.5850085717 -1.0857553461
H -0.1808940192 1.8724884259 0.6510966669
H 1.4214106551 0.0372976259 1.1480200748
H 1.7776118677 -0.0846102772 -0.5797813645
H -0.2728790176 -1.7638689423 0.8833339631
H -0.0675906433 -1.707217578 -0.8754031055
