15
0
C 1.9875312246 0.1386801814 -0.1982330224
C 0.7622905795 -0.6416064139 0.2630053927
C -0.5019564681 -0.2067723645 -0.4351879567
C -1.2575011265 0.9876846426 0.0654632928
C -1.8351951943 -0.3903784772 0.2206371605
H 1.8601907156 1.2079749466 -0.0147096189
H 2.889487782 -0.1888484962 0.3221493578
H 2.1557323175 0.0056721942 -1.269800316
H 0.9204538346 -1.7120840381 0.0968841244
H 0.6304860878 -0.516545797 1.3432285288
H -0.4856089809 -0.3335101015 -1.513602682
H -1.7123149685 1.6562980189 -0.653437252
H -0.8811401114 1.4778177474 0.9555584899
H -1.8503079002 -0.8225719542 1.2138451309
H -2.6821477918 -0.6618100887 -0.39580063
