10
0
O 2.07969753 -0.3006565715 0.1525577645
C 0.7697762374 -0.0940756654 0.055934889
C 0.2813842561 1.221141859 -0.0280034904
N -1.0043387061 1.4470681881 -0.1236833798
N -1.8497266025 0.419620182 -0.141510365
C -1.3419970844 -0.7913507796 -0.0603988259
N -0.0485146762 -1.114381219 0.0396607177
H 2.2221417497 -1.2544849996 0.1993937922
H 0.9448894948 2.0768056057 -0.0160911623
H -2.0533121988 -1.6096865995 -0.07785994
