11
0
C 1.8432691083 0.0022712456 0.1674365393
C 0.3689421077 0.094009976 0.0539099768
N -0.3888008049 1.1204228453 0.2304067867
C -1.6732726499 0.6518839207 0.0035005294
C -1.6140804294 -0.6546799772 -0.3027192729
O -0.3050569135 -1.0288191613 -0.2742253239
H 2.1242603891 -0.7223594114 0.9331001771
H 2.2365866271 0.9794140292 0.4353808947
H 2.282823732 -0.3191530659 -0.7778915093
H -2.5380924254 1.2904516021 0.0781986332
H -2.3365787409 -1.4134420032 -0.5470974309
