21
0
C -3.4839815478 -0.2832067366 -0.7425624124
C -2.2692492623 -0.3170561899 0.1752668816
C -0.9618988912 -0.0401769116 -0.5576311792
C 0.2563168387 -0.0747189415 0.3564992957
C 1.5473492306 0.1977020703 -0.3847732478
O 2.6220586491 0.1392757513 0.5201449483
C 3.860332502 0.3690191046 -0.093587496
H -4.4059011416 -0.4874381819 -0.1952258276
H -3.3960973201 -1.0281123643 -1.5373865199
H -3.5894205973 0.6949962693 -1.2185220636
H -2.3951103205 0.4173209329 0.9776906982
H -2.2064866816 -1.2939432778 0.6660531189
H -0.837298512 -0.775361806 -1.3614548298
H -1.0250456188 0.9380280814 -1.0489211643
H 0.3325254322 -1.0518711865 0.8429047532
H 0.1469534946 0.6648001608 1.1553912542
H 1.6914911495 -0.544142567 -1.1862936231
H 1.5120887715 1.1884760061 -0.8650728493
H 4.0651401807 -0.3737679954 -0.8766611024
H 4.6290337881 0.291181966 0.6744006339
H 3.9071998556 1.3689958153 -0.545959398
