17
0
C 2.0631214837 0.0952783551 -0.0796290564
O 0.9933803425 0.1367004775 0.8363299116
C -0.301343968 -0.0381426511 0.2824565499
C -0.6254335693 0.9524449417 -0.824929702
C -1.2613668138 0.1042198931 1.4594899851
C -0.4184049518 -1.4825589896 -0.2017016831
O -1.0609368485 -1.8454931832 -1.1456076929
H 2.0175976215 -0.7857811019 -0.7328299675
H 2.9777168833 0.0421060053 0.5088475777
H 2.1006490939 0.9918020611 -0.7063785023
H 0.0058816521 0.8061345302 -1.7014454174
H -0.49413708 1.9712249398 -0.456937068
H -1.6575527241 0.8215829853 -1.1471492083
H -1.162778243 1.1041600151 1.8834761899
H -2.292002801 -0.0483686282 1.1377215089
H -1.0209682572 -0.6209918003 2.238646619
H 0.1365781796 -2.2043178496 0.4367768633
