13
0
C -0.9530606283 -0.953488638 -0.3904386783
C -0.0151246164 0.0634144388 0.2636054729
O -0.0368864835 -0.0370350715 1.6542317965
C -0.4155060336 1.4829317396 -0.1499827133
O -0.5727293156 1.8176831366 -1.2889749604
C 1.3985791905 -0.16785414 -0.2547462828
O 2.2957969967 -0.4489032535 0.4902814107
H -1.9559763118 -0.8246978054 0.0161965749
H -0.6173312435 -1.966402538 -0.1658844808
H -0.989621533 -0.8071865661 -1.4699550423
H 0.8594941317 -0.2676281825 1.9365090543
H -0.5375295114 2.1775189977 0.7038616692
H 1.5398953583 -0.0683521175 -1.3447038206
