14
0
C -1.1050355778 0.8596838291 -0.5326160543
C -1.40598215 -0.2374226265 0.4551167085
C -0.0114082515 0.0043639119 -0.0006406077
C 0.9215380418 -0.9308797338 -0.7475920049
O 2.0278551532 -0.5044858468 0.0641571364
C 1.2052728643 0.4044952906 0.8134663939
H -1.4073701064 0.7139314256 -1.5625084173
H -1.1614696941 1.8848317592 -0.187365782
H -1.6666398851 0.0457635518 1.4676122353
H -1.9096485601 -1.1245642736 0.091200648
H 0.7193274534 -2.0002224907 -0.6285791168
H 1.0822734512 -0.7025841398 -1.8061183086
H 1.1756378498 0.1453301593 1.8767158029
H 1.5356494108 1.4417591837 0.6971513667
