16
0
C -1.0467110033 -0.8882192302 0.7124002368
C -0.264110646 0.242483764 0.0327703111
C -0.3754514419 0.1451485494 -1.4938884151
C 1.2091249694 0.2207379001 0.4713266071
O 1.7637520997 -1.0122450703 0.0703053399
C -0.8126247611 1.5361852987 0.4714545623
N -1.2334224511 2.5468427074 0.8157346305
H -0.6297437044 -1.8469599129 0.4067387902
H -0.9842509081 -0.8104876651 1.7987827135
H -2.0980933425 -0.8525466155 0.4256722675
H -1.4200729973 0.1773572892 -1.8046913319
H 0.0633266005 -0.7942268594 -1.8278357096
H 0.1516882515 0.9680297987 -1.9787151788
H 1.7328398402 1.0642764306 0.005539497
H 1.2601424242 0.3448559402 1.5598854596
H 2.6836070704 -1.0412323251 0.3345202199
