14
0
C -2.0011608509 0.6301835098 -0.0323468654
C -0.7377045444 -0.0498464883 0.4049443788
O -0.3959398383 -1.0894321231 -0.4675905329
C 1.0088819414 -1.2146799551 -0.3934117171
C 1.4659064099 0.1778813969 -0.0372206651
N 2.6376705935 0.6168417354 -0.1056373588
O 0.3676557764 0.8605203918 0.3685128457
H -2.2400836428 1.4465348029 0.6486978098
H -2.821487118 -0.0874096454 -0.0238486931
H -1.8776791761 1.0230048012 -1.0412517628
H -0.8115925572 -0.4283189583 1.4357907473
H 1.401203732 -1.54343519 -1.3528270375
H 1.3126980911 -1.9238441536 0.3865734317
H 2.6916311836 1.5819998757 0.2096154192
