17
0
C -2.373516005 -0.5354598292 -0.3970938475
C -1.1675361719 0.3607707447 -0.6381536597
C 0.0989604161 -0.1596494149 0.0206556201
O 0.4072941373 -1.4123294893 -0.5575615674
C 1.2625127271 0.8115016011 -0.1480004807
C 2.5411054485 0.3518125874 0.4891642801
O 2.6950349923 -0.7186583361 1.0189490343
H -3.263464195 -0.1343442039 -0.8846218765
H -2.1922368293 -1.5376625388 -0.7850534279
H -2.5890215795 -0.6234915753 0.6707645876
H -0.9789765997 0.4547470909 -1.7126345706
H -1.3664805063 1.3690317707 -0.2615655769
H -0.0888287393 -0.2874303057 1.0971262631
H 1.1369120535 -1.7827245642 -0.0509864228
H 1.0231712412 1.7986135326 0.2643530273
H 1.4715554061 0.9736297798 -1.2131362965
H 3.3835142043 1.0716431499 0.4473771086
