7
0
O 0.6855061329 1.0799886222 -0.0532993162
C 1.020415801 -0.1995798634 0.0207150344
N 0.0174922555 -1.006524394 0.0558084712
C -1.0326049604 -0.1276294452 -0.0027825632
N -0.6953545077 1.1207369376 -0.0686233946
H 2.0731502573 -0.4368461776 0.0439560869
H -2.0686049787 -0.4301456797 0.0042256815
