21
0
C 0.5085209901 1.4979372129 0.166827875
C -0.9692538851 1.3961823334 -0.2145967228
C -1.6947933073 0.1294262739 0.2323511573
C -1.0399650427 -1.196467014 -0.1588062298
C 0.2624671896 -1.4794498495 0.5941609681
C 1.5344455607 -0.8810136831 -0.0158408921
C 1.4068129739 0.528058902 -0.6050560432
H 0.6327417108 1.3561880537 1.2466774641
H 0.8372435108 2.519868058 -0.0411557699
H -1.0443406816 1.4854518444 -1.3050023656
H -1.5041788775 2.2583707907 0.1950932347
H -1.8013311601 0.1445181263 1.3236467849
H -2.7120403339 0.1588007346 -0.1698731747
H -1.7514358134 -1.9975601366 0.059312664
H -0.8706178871 -1.2323215759 -1.2413745483
H 0.1446183891 -1.1166360789 1.620773158
H 0.4081424093 -2.5595040275 0.6817870536
H 2.3104474423 -0.8785341227 0.7557852759
H 1.9011259255 -1.5463498298 -0.8035375966
H 2.4118632332 0.9498653445 -0.6900596223
H 1.0295276537 0.4631686436 -1.6311126706
