11
0
C -1.6215201023 -0.2058949857 -0.2128826652
N -0.2512978689 -0.6363052579 -0.0607407172
C 0.7403241534 0.2691629337 0.1118408605
N 0.5422475303 1.5254172059 0.0848249641
C 2.0582315371 -0.3296686045 0.3166628802
N 3.103419075 -0.7715176126 0.4846733698
H -1.974091343 0.3235337281 0.6756818541
H -2.2449715931 -1.0810969641 -0.384120258
H -1.7112476853 0.4708838746 -1.0633353279
H -0.0456952226 -1.6058745078 0.0887047356
H 1.4046015193 2.0413601901 0.207220313
