15
0
C -2.2218573691 0.2685214292 0.6686288862
C -1.1421341187 -0.3015536972 -0.2411060139
C 0.2493467609 0.0863467374 0.2119300062
O 1.1959934131 -0.4819457926 -0.6578231116
C 2.5141262329 -0.1598354451 -0.309805594
H -2.184600443 1.3604314074 0.6955901569
H -3.2165768661 -0.0192165064 0.3258542891
H -2.1092185364 -0.0920546605 1.6940700405
H -1.2842378918 0.0483040059 -1.2669391315
H -1.2062742595 -1.3924260808 -0.2704548169
H 0.4261545579 -0.2625416329 1.2420901666
H 0.3554269431 1.1831004942 0.2214490117
H 3.1739554677 -0.6510429806 -1.0239866723
H 2.6884161994 0.9240839871 -0.3511856093
H 2.7614799095 -0.5101712651 0.7016206647
