17
0
C 2.4098078899 -0.5204617444 0.4866020151
C 1.2167028599 -0.3186450595 -0.439049313
C -0.0743589087 -0.1644919543 0.319534045
C -0.5481817666 1.1515872299 0.8125125685
N -1.1723575744 0.5145336858 -0.3314062724
C -2.4948336092 -0.0327028553 -0.1148851467
H 2.518025822 0.3213551052 1.1745218012
H 2.2980954482 -1.4259086973 1.0880923561
H 3.3386294525 -0.6117383048 -0.0786777257
H 1.3577890733 0.5708659181 -1.058106838
H 1.1276432903 -1.1645739301 -1.1277788833
H -0.3459358951 -1.0161499135 0.9447995872
H 0.0245670377 2.0481058329 0.5995358845
H -1.1042785435 1.1727892893 1.7461325751
H -2.6823182011 -0.8242819064 -0.8425667286
H -3.2404852254 0.7502496541 -0.2642327065
H -2.6285111499 -0.4505323493 0.8949874974
