12
0
C 2.0398327341 -0.4018476 0.0636143909
O 0.6768234348 -0.6102762796 0.4410332484
C -0.213936549 0.186896243 -0.1368735963
O 0.0530377813 1.0457165071 -0.9372562866
C -1.6250344585 -0.0972785001 0.3204767875
O -2.5344365804 0.7530476621 -0.3077392059
H 2.169341035 -0.5746159216 -1.004515398
H 2.3476098041 0.6159807492 0.3015224408
H 2.6180913463 -1.1193097329 0.6389391177
H -1.8500642847 -1.1471636775 0.1012084279
H -1.6606877719 0.022042832 1.4094192225
H -2.020576491 1.3268077185 -0.8898291489
