15
0
C -1.2972758466 -0.9543340707 0.0841466796
C -0.114018096 -0.0267210408 0.0077359556
C 1.0835831968 -0.5888926346 -0.7375154777
O 2.219179754 0.2244410389 -0.6165433396
C -0.3244699996 1.432379283 0.0431800858
N 0.2741987151 0.7389049867 1.1899210924
H -2.1406053369 -0.4818830435 0.5914568902
H -1.6283063436 -1.2401826312 -0.9169246126
H -1.0398546972 -1.8687917387 0.6246070463
H 1.2819391836 -1.6019261335 -0.3554422905
H 0.8503842594 -0.6785640675 -1.8021345661
H 2.2184998206 0.5395416125 0.297263924
H -1.342611291 1.7936561107 0.139288994
H 0.3511435001 2.0884079072 -0.4920083681
H -0.3917868185 0.6239644214 1.9429679863
