15
0
C 1.8249938199 -0.1220792982 0.8420338278
C 0.5768844298 0.1383069841 0.0781982684
C -0.1289625418 -0.8142404092 -0.8452562392
C -0.8721788608 -0.1631406985 0.2903457942
O -1.4881431098 -0.8515479292 1.3119210262
C -1.1088974562 1.2978724148 -0.0355737259
O 0.2950228409 1.4798438162 -0.3246348366
H 2.7001164829 0.0455379872 0.2109717678
H 1.8435910939 -1.1555829876 1.189161785
H 1.8875756327 0.5385368001 1.70762241
H -0.3220857187 -0.5379774573 -1.8766665963
H 0.1063907398 -1.8578611997 -0.6698134795
H -2.1649976433 -1.4197143961 0.9388936797
H -1.7485055574 1.5437392478 -0.8879108956
H -1.400804152 1.8783071258 0.8429173323
