8
0
C -1.0678539937 -0.3787396124 -0.2336277026
N -1.0767978799 0.9351930547 -0.4399059305
N 0.0329758069 1.5989687864 -0.2407561694
N 1.1163542261 0.9789333957 0.1520778427
C 1.0534661166 -0.3361031472 0.3398013566
N -0.021880193 -1.08218854 0.1610996186
H -2.0045256165 -0.8981706921 -0.4069864444
H 1.9682615334 -0.8178932449 0.6682974291
