16
0
C 1.8389620071 -0.1097816164 0.3931645936
C 0.3745330608 -0.0230015374 0.0803149651
C -0.2786009971 0.3476017112 -1.276973536
C -1.4556582513 0.0869916046 -0.3116210607
C -0.6813631041 -1.1545482644 0.1831553695
C -0.6776984558 0.9037119387 0.7433381014
H 2.3282819205 0.8541092942 0.2354838914
H 2.3310325637 -0.8471596476 -0.2450482645
H 1.9986493843 -0.4022770409 1.4334853363
H -0.1418606542 1.376335323 -1.6173756912
H -0.1436447336 -0.3674844504 -2.0914182746
H -2.5182821054 0.1514077276 -0.538314896
H -0.9161958414 -1.5098231715 1.1889180528
H -0.5771762879 -1.9816120315 -0.5224731226
H -0.569545738 1.9740264161 0.5544230688
H -0.9114327674 0.7015037449 1.7909414664
