12
0
O 0.3546307786 0.6628276895 1.4506906974
C 1.1094114852 0.1072126229 0.3631051826
C 0.3606096927 -1.1401620108 -0.1385456389
C -1.023675473 -0.6324909623 -0.0321091852
C -0.7182032412 0.7773852137 0.5035425383
C 0.2500410767 0.8273882306 -0.6937045951
N -0.2700218912 -0.4631570275 -1.3015876082
H 2.1873229884 0.125080541 0.4889417977
H 0.6459428259 -2.1820864419 -0.1519573543
H -1.9107273405 -1.2443086874 0.0438408942
H -1.5020479316 1.4783394553 0.7719343644
H 0.5167170299 1.6839713771 -1.3041510932
