15
0
C -0.101872678 -1.5128031131 -0.0719873295
C -0.3225569446 -0.1177110654 0.5150705716
C 0.3237218505 0.9854857977 -0.3496012325
C 1.7747185196 0.8536890554 -0.4382094024
C 2.9650534785 0.736619686 -0.4954601621
C -1.7502998912 0.1639801302 0.6798765706
C -2.9201704585 0.3944853133 0.7926063148
H -0.5683098529 -1.5908490248 -1.0559570375
H 0.965190222 -1.7129105569 -0.1759603022
H -0.5398709266 -2.2747039664 0.5725551513
H 0.1422799514 -0.0772052058 1.5050136909
H -0.1086834947 0.9526684289 -1.3534423901
H 0.0768548202 1.9639282521 0.067641823
H 4.0233760229 0.6383520788 -0.5516239071
H -3.9594306187 0.5969741898 0.90106111
