12
0
O 2.4329914332 -0.6581655094 -0.0384753174
C 1.2947867452 -0.2657059011 -0.0218794337
C 0.046798612 -1.1443228717 -0.0013713116
C -1.13632314 -0.1721022963 0.0238490877
C -0.4928191468 1.1873000244 0.0060494444
C 0.8362707421 1.1421187152 -0.0183845305
H 0.0871727508 -1.7960850069 0.8721426426
H 0.0547488989 -1.7872457291 -0.8824363486
H -1.801813149 -0.294218993 -0.8344627339
H -1.7592232889 -0.2891146471 0.914348127
H -1.0814448016 2.0974385872 0.0140731446
H 1.518854344 1.9801036274 -0.0334527706
