18
0
C 2.0190015764 -0.026967104 -0.5355570354
C 0.8042273399 -0.7155037947 0.0710393373
C -0.5207563666 0.0470799277 -0.0827851645
C -1.6518135004 -0.7499422847 0.56180215
C -0.4473678071 1.4437994989 0.5156561169
O -0.8107099792 0.2490803387 -1.4673743862
H 1.8278339144 0.252430376 -1.5727707203
H 2.8873967751 -0.6876448594 -0.5160928987
H 2.2870098935 0.878288599 0.0118731885
H 0.9743497179 -0.907381123 1.1352410662
H 0.6755649437 -1.7004678139 -0.3942966924
H -1.4888460095 -0.8720259153 1.6346250834
H -1.7220481307 -1.7486276451 0.1204854844
H -2.6051272546 -0.241062072 0.4113831658
H -0.1581863692 1.4001850496 1.5675339123
H -1.4194772882 1.9332378159 0.4419931336
H 0.2768947493 2.0550383638 -0.022194648
H -0.9279462043 -0.6095173576 -1.8805610928
