11
0
C -1.7974865494 0.0598210696 0.2106545387
N -0.3675336767 0.0175051585 0.0090467126
N 0.3790771371 1.098099627 0.0602989508
C 1.6144746559 0.6405658662 -0.1050842598
C 1.5510662662 -0.7451848039 -0.2492720825
N 0.2780713861 -1.1131575287 -0.169679859
H -2.0315940062 0.0295874188 1.2753436064
H -2.2345558103 -0.8040562547 -0.2828679932
H -2.1825615114 0.9801011748 -0.2209381079
H 2.4601376431 1.307768765 -0.1183525742
H 2.3309044658 -1.4710504927 -0.4091489318
