17
0
C 1.8057300375 0.3602873092 -0.699845259
C 0.9943430078 -0.5831761765 0.1444362481
O 1.4924166814 -1.5571087217 0.6584030955
C -0.4958818209 -0.2988920635 0.3751529962
C -0.6948834723 1.1149606747 0.9177449089
C -1.2548068419 -0.5023503388 -0.9406387427
O -0.9781714948 -1.215437713 1.3251353092
H 1.2460923894 0.7338698587 -1.5567362932
H 2.7146747943 -0.1372151628 -1.0304144231
H 2.0827164706 1.22252753 -0.0879903795
H -0.1266103199 1.2528881828 1.8389126893
H -1.7514395078 1.2544631165 1.1487435471
H -0.3979952966 1.8772000138 0.1955184334
H -2.3217874887 -0.4016726789 -0.7395556865
H -1.0773862134 -1.5060414237 -1.3304540054
H -0.978062635 0.2294326112 -1.7010973894
H -0.2589482899 -1.8437350177 1.4826849507
