11
0
C 1.1084241092 -0.2314236297 -0.0382179202
C 0.1015557649 0.8644633662 0.3544118903
C -0.9402759855 0.2348716045 -0.5875849928
C -0.263499004 -0.8679455609 0.2457087774
O -0.3861748097 -0.0082345964 1.4334001446
H 1.4773629796 -0.2447923288 -1.0639983844
H 1.8787020912 -0.4402742546 0.7014818033
H 0.2763116616 1.9115528002 0.5935206564
H -1.9789918164 0.4379465204 -0.3345300346
H -0.7426718359 0.2609484815 -1.6594628475
H -0.5307431551 -1.9171124022 0.3552709073
