10
0
N 3.3094303015 -0.4934106482 0.0114675376
C 2.1627631173 -0.4450964427 0.0329766237
C 0.7407530594 -0.3317222594 0.048059956
N -0.1113364153 -1.3032927475 0.2572424068
C -1.3414532536 -0.7235852234 0.1740570505
C -1.2258986671 0.6135122367 -0.0884551362
N 0.1124229125 0.8550548553 -0.1671878416
H -2.2446216438 -1.2975548004 0.3053222073
H -1.9603388217 1.3891708576 -0.2246003752
H 0.5582794109 1.7369241721 -0.3488824286
