8
0
O -1.5289428851 -0.4707989692 1.1950633528
C -0.9811846292 0.4991438429 0.7647498056
C 0.0413993805 0.4100278763 -0.3703839887
O 0.1325292894 1.2979242737 -1.1720613114
C 0.9483226715 -0.8179275305 -0.476394513
O 1.3611825192 -1.3802092227 0.492745896
H -1.2263246346 1.5320180512 1.0758797727
H 1.2530182883 -1.0701783216 -1.509599014
