14
0
C 2.5694000518 0.1620994925 0.0044057728
N 1.1923476134 0.2531948335 0.4357925467
C 0.1759379933 -0.002350398 -0.4338648346
O 0.3395522915 -0.2124116137 -1.6165856655
N -1.0839834727 0.019114104 0.1513339288
C -2.2399703245 -0.216657241 -0.559406749
N -3.3637860102 -0.1493951838 0.016676943
H 2.6396388468 0.5252033606 -1.0184785921
H 2.9463719148 -0.8640823261 0.0302090603
H 3.1898098627 0.7872884592 0.6455676095
H 1.0030978524 0.2313802588 1.4212942476
H -1.2079276812 0.26654968 1.1196156492
H -2.0499112845 -0.4502608467 -1.6066453063
H -4.1105776537 -0.3496725795 -0.6382765015
