16
0
C 1.9005913359 0.209053272 0.0316357681
C 0.4048980446 0.4447503129 0.1419756333
C -0.4197326233 -0.028200385 -1.0546290368
C -1.8165778359 -0.1488438816 -0.4580558309
O -1.6393610408 -0.4395453851 0.9242893196
C -0.2700386799 -0.3273142701 1.2712951666
H 2.3282091872 0.765200712 -0.8047906315
H 2.4213961732 0.5233469367 0.9388054188
H 2.1148492546 -0.8511765788 -0.1278934418
H 0.2151028034 1.5130106305 0.2944185924
H -0.3801323056 0.6538600003 -1.9046720255
H -0.0572590607 -1.0052775535 -1.3886952746
H -2.4092951756 -0.9445505875 -0.9156928824
H -2.3734309873 0.7904979099 -0.5548392436
H -0.1947748459 0.1733354424 2.2395825559
H 0.1755557566 -1.3281465749 1.3672659122
