14
0
C -1.2918322215 -0.9445519116 -0.3716349697
C -0.5713940471 0.3688714271 -0.5471308301
C -0.1863907444 1.2079933561 0.614206362
C 0.898861995 0.5495806885 -0.212388439
C 1.6734808285 -0.5500654503 0.3911494092
O 2.8224999754 -0.7897278024 0.129328293
H -1.0668797765 -1.4135090102 0.5869237995
H -2.3710941005 -0.7849829549 -0.4091882665
H -1.0295442855 -1.6511390956 -1.1612599091
H -0.8622789116 0.9134911655 -1.4385036116
H -0.3595761965 0.8000720069 1.603863667
H -0.2681347764 2.2844595302 0.5512800979
H 1.4811871827 1.1764397654 -0.8754927174
H 1.1310950784 -1.1669317146 1.1388471149
