16
0
C -1.297254025 -0.993861873 -0.3964283827
C -0.2381707609 -0.0964757406 0.2199079145
C -0.6367622254 1.3747557158 0.1236436374
O -0.1274628832 -0.4823159934 1.5831930175
C 1.1070977769 -0.3390782147 -0.4604511919
O 2.0909867339 0.4054627358 0.2412287147
H -1.0197709355 -2.0433308607 -0.286376549
H -2.2502067476 -0.8415637398 0.1117079856
H -1.4331698712 -0.7720545871 -1.4567555476
H -0.7868497822 1.6754053041 -0.9158926996
H -1.5661353846 1.5361763848 0.6710111227
H 0.1366690444 2.0123843051 0.5539269519
H 0.6716443974 -0.0677546276 1.9235573142
H 1.3307310039 -1.4109496062 -0.4176631615
H 1.0591451677 -0.028941786 -1.5117009654
H 2.9595084915 0.0721425836 0.0170918393
