16
0
C -2.3801294165 -0.6894703322 0.0521851354
C -1.2416086664 0.0183533623 -0.6438209432
O -0.1207072541 0.0237164161 0.210397666
C 1.0137658977 0.6428110482 -0.3489798581
C 2.1506339811 0.4689501042 0.6314571031
O 2.4392617553 -0.8917931289 0.8563369137
H -2.1100264475 -1.7220939107 0.2778419368
H -3.2681206456 -0.6963612888 -0.5819551665
H -2.6280009544 -0.1865799146 0.987791694
H -1.5215335564 1.0522325653 -0.8921325553
H -0.9872285068 -0.4868271612 -1.586584797
H 0.8246119589 1.7109000322 -0.5302621378
H 1.269636233 0.169062638 -1.3072476327
H 1.8971066367 0.9782089423 1.5704203323
H 3.0560154077 0.9275741442 0.2297485286
H 1.6063235772 -1.3186835166 1.074803781
