14
0
C 1.9223152967 0.029207682 -0.519423811
O 0.8061809351 -0.6975695547 -0.0625183537
C -0.4014481654 0.014386168 -0.1691875411
C -1.5475521619 -0.9589426864 0.0481400026
C -0.4756743567 1.1050385604 0.8878263793
O -1.1073988196 2.1165405133 0.7708719658
H 2.7974278541 -0.6042024409 -0.3857873855
H 1.8205176674 0.2826983764 -1.581773219
H 2.0690313633 0.9583992392 0.0459106247
H -0.4902883021 0.4910485323 -1.1550570926
H -1.5010664556 -1.7496911186 -0.7001083004
H -1.4760365544 -1.4169584107 1.0365360623
H -2.5036784597 -0.4417173624 -0.0337427536
H 0.087670159 0.8717625023 1.818313422
