12
0
O -2.0129054909 -0.0015316969 -0.3714543895
C -0.9996587262 -0.715683152 0.2732781687
C 0.3838578045 -0.4219702425 -0.3591419901
C 0.7146361939 1.0002677755 -0.2442397964
C 0.9234579175 2.1728128886 -0.1378935874
C 1.4095619161 -1.2673512097 0.2616439287
N 2.1780731231 -1.9575474062 0.7583865223
H -1.8848353921 0.9367034702 -0.2066251469
H -0.9515149219 -0.4973503248 1.3456121204
H -1.2216219847 -1.7752230116 0.1459667038
H 0.3286715217 -0.6862656167 -1.4195245592
H 1.1322780389 3.2131385262 -0.0460079747
