16
0
C 2.0122788646 0.3334673139 0.1769208712
C 0.7825503877 -0.4887037814 0.5324030997
C -0.4053211794 -0.2704306185 -0.4159862381
C -1.5667937927 -1.2131149489 -0.0901876432
C -0.8552456014 1.1247402603 -0.3925968863
C -1.2358436617 2.2602437609 -0.3533658848
H 2.3654572651 0.0973243954 -0.8300081553
H 1.7938868359 1.4023620105 0.2118245698
H 2.8291273183 0.1337530219 0.8722199314
H 1.0301704397 -1.5544328547 0.5145634101
H 0.4603141729 -0.2589732825 1.5525832275
H -0.0654822389 -0.4825797405 -1.4366115851
H -1.9293622377 -1.0375616707 0.9244385615
H -2.3992799653 -1.0619262265 -0.7776271444
H -1.2415361453 -2.2527201115 -0.1639761998
H -1.5749204619 3.2685524721 -0.324593934
