16
0
C -2.5182233463 -0.3664628666 0.0716404224
C -1.1191175847 0.1468919904 0.0620225866
C -0.6226264189 1.4175239972 0.1600217764
C 0.7973341477 1.3342650424 0.0932407467
C 1.1304656916 0.0148161029 -0.0434344001
C 2.4539393278 -0.657950314 -0.1674691555
N -0.0431492928 -0.6941242049 -0.0610480658
H -2.6867591089 -1.0757541845 0.8867940947
H -3.2144449707 0.4603523723 0.2048277479
H -2.775087077 -0.8692252545 -0.8650270176
H -1.2159335136 2.3125278353 0.2666624298
H 1.4969806073 2.1542413029 0.1413311015
H 2.5575910757 -1.1761355138 -1.12483689
H 3.2505496237 0.0816511068 -0.101500273
H 2.6147034988 -1.3908609126 0.6280097421
H -0.1062226599 -1.6917564992 -0.1512348458
