9
0
O 0.0162526628 -1.3693256099 0.0855137719
C 1.0887823095 -0.5594146051 -0.0628378271
C 0.7040904722 0.7342798827 -0.1099196063
C -0.7209252982 0.7256124729 0.0195598553
C -1.074696281 -0.572615601 0.1339640097
H 2.045683738 -1.0501796027 -0.118110017
H 1.3478435389 1.590819652 -0.2231002411
H -1.3854760701 1.5739898204 0.025825741
H -2.0215550721 -1.0731664094 0.2491043135
