9
0
C -1.3087130884 0.0067985166 0.0318426798
C 0.1715480651 -0.0344224554 0.0209553648
N 0.9054482267 -0.9000880735 0.6395174456
O 2.1682532899 -0.5483265793 0.3436668943
N 2.1499304597 0.544935359 -0.4630997678
N 0.9613263854 0.865486636 -0.6659878169
H -1.6558442863 0.9504645739 0.453037583
H -1.6933601339 -0.0679975904 -0.985392347
H -1.6985889183 -0.816850387 0.6254599642
