8
0
N 2.4137114635 -0.1797316172 0.986680606
C 1.4420927588 0.0831639134 0.4375662515
C 0.225538125 0.4099202677 -0.2830814536
C -0.9795778853 -0.4005809962 -0.0925223261
O -0.8568524656 0.8809144479 0.4894617022
H 0.3887941741 0.9198880193 -1.2271534777
H -1.686226965 -0.4794866508 -0.912454581
H -0.9474792053 -1.2340873843 0.6015032788
