9
0
N -1.8882992032 0.4323447691 0.5159656127
C -1.0679547504 -0.6345313453 0.6364439225
O -1.4288520124 -1.7811167067 0.7339493201
C 0.3607288206 -0.2866121278 0.6406657895
C 1.5363059944 -0.051002163 0.6489092946
C 2.887477977 0.2227942233 0.6569921306
N 4.0127588678 0.4590539737 0.6631003746
H -1.5316071907 1.3662912754 0.4350636823
H -2.880558503 0.2727781013 0.5039898542
