14
0
C -1.1821904634 -1.08525483 -0.1164237955
C -0.747663219 0.2638829894 -0.6720202393
C 0.4240787325 0.8860992232 0.0906715567
O 0.0906004415 1.1423199041 1.4230402049
C 1.6499441138 0.0109141274 0.0110812846
O 2.2407244034 -0.3616793475 0.9893237272
H -2.0677873118 -1.4520720298 -0.6364535431
H -1.4220691418 -1.0026875451 0.9439082431
H -0.3995780875 -1.8405551305 -0.226416887
H -1.5756179156 0.9741816698 -0.6233504445
H -0.471004262 0.1784052998 -1.7280061178
H 0.6995805385 1.826031527 -0.416259348
H 0.7749139705 0.7301686685 1.9668158803
H 1.9860682009 -0.2697545261 -1.0059105219
