13
0
C -0.7698890676 0.2630298352 1.0195155877
C -0.5566610229 -0.9427980954 0.0947229918
O -1.1534764612 -0.1580573379 -0.9846500965
C -0.4608718501 0.944636789 -0.3202711339
C 1.0058958866 0.5598479103 -0.6040499828
O 1.7090117298 0.0263964754 0.5126518291
C 0.9342505468 -0.8555877034 -0.2921597209
H -1.8209775706 0.3728290275 1.2723687546
H -0.1139657253 0.4176954755 1.8704698565
H -1.0116468975 -1.9191642226 0.240492202
H -0.8160639174 1.9314730313 -0.6057006704
H 1.5939532448 1.0069250583 -1.3944959195
H 1.4604411045 -1.6472262432 -0.8088936978
