11
0
C -0.9014808219 -1.1038907136 0.0982261378
C -0.4227959006 0.3217444603 -0.1121933446
O -0.8211213652 1.0736432985 1.0218474739
C 1.0324572973 0.3895887467 -0.3167099541
C 2.2154187196 0.4699987782 -0.4847207096
H -1.9826842864 -1.1041443976 0.2374021605
H -0.4317683584 -1.5261433654 0.986457398
H -0.6519646109 -1.722677743 -0.7636681174
H -0.8989947312 0.7291498362 -1.0142133379
H -0.4047938804 1.9369583087 0.9794114464
H 3.2677279381 0.535772791 -0.6318391531
