12
0
C -1.2863906929 -0.2770114462 -0.3676333732
C 0.2172888126 -0.0932825416 -0.2983399618
C 0.6471869689 1.3514256088 -0.1139619528
O 1.785596113 1.7173983387 -0.1967332326
C 0.8713112947 -0.9177850626 0.8022206018
O 0.2755381068 -1.6942717455 1.4913034827
H -1.5395877045 -1.3264367024 -0.5095264312
H -1.7609819622 0.0491054382 0.5592812765
H -1.7102048191 0.2956487895 -1.194057239
H 0.7096668843 -0.4237821788 -1.2219278023
H -0.1674203087 2.0653882581 0.1274338865
H 1.9579973072 -0.7463967563 0.9219407453
