12
0
C 2.6879149131 0.0814970449 -0.0490357012
C 1.5899131687 -0.3782753773 0.076040771
C 0.2389120259 -0.9085010011 0.2370994003
C -0.7684528748 0.1895304569 0.4905598097
C -1.5522321288 0.7731322514 -0.5896990546
O -2.1247392025 -0.1642458677 0.3123400986
H 3.6670219557 0.4835667509 -0.160835896
H 0.2207855262 -1.6114673039 1.0743780122
H -0.0548737335 -1.4664191447 -0.6552063479
H -0.5713161145 0.7997691121 1.3694964808
H -1.4091345719 0.412089294 -1.6046517005
H -1.9237989639 1.7893237843 -0.5004858726
