15
0
C 2.2191709574 0.5170328831 0.068265444
O 0.8173164387 0.5155214779 0.0179712599
C 0.2661725058 -0.7718384636 0.125193436
C -1.2337984952 -0.6965303472 0.014724093
C -1.9789846292 0.4662052583 0.5273039543
N -1.8526069746 0.2356531683 -0.9143185155
H 2.6496769429 -0.0682449389 -0.7544037183
H 2.5863519689 0.1066310936 1.0176127982
H 2.5493372667 1.5509045344 -0.0216207327
H 0.5437875372 -1.2297317643 1.086314907
H 0.6617138847 -1.4169207781 -0.6742782938
H -1.7106133538 -1.6719720335 0.0463488201
H -1.4035168719 1.2746459632 0.9622738951
H -2.9768752983 0.3343049864 0.9284959861
H -1.1371318796 0.8543389605 -1.2808589911
