9
0
O 2.1462182562 -0.4705549644 -0.8193509693
C 1.0393871831 -0.3533425374 -0.4194054282
C 0.1312622527 0.7579899215 0.0836897706
C -0.8794061132 -0.3774632046 0.2390643586
O 0.099197081 -1.3293004554 -0.2642671958
H -0.09593603 1.5134800685 -0.665285779
H 0.4797250838 1.2303796729 0.9995181017
H -1.751422263 -0.3421690835 -0.4120719063
H -1.1690254506 -0.6290194177 1.2581090479
