12
0
C -2.5816869569 0.666666448 0.045831224
C -1.2769944673 0.0463410215 -0.1508230624
C -0.2017994656 -0.4561429975 -0.3080158293
C 1.1101631612 -1.0796967686 -0.4998650691
C 2.2265206756 -0.1417539797 -0.3554002009
C 3.1479742526 0.611444499 -0.2378146152
H -3.0588501003 0.2841802617 0.9492302879
H -2.4806385793 1.7483745628 0.1460190968
H -3.240696111 0.4634129663 -0.7994151603
H 1.1557232924 -1.5368298317 -1.4922577151
H 1.23675555 -1.8924494982 0.2207865215
H 3.9635287489 1.2864533165 -0.1296682065
