8
0
O 0.6567721707 -1.3293766441 -0.0522474802
C 1.0751768153 -0.0639237674 -0.0743984171
C 0.0248896291 0.780443572 0.0025086765
C -1.0822963464 -0.1031823298 0.0740374866
N -0.7116669221 -1.3492980968 0.0420037615
H 2.1408875711 0.0811882037 -0.1479642833
H 0.0306230189 1.8562700275 0.0077293759
H -2.1343859367 0.1278790347 0.1483308801
