15
0
C 2.1047729017 0.8534095319 0.637725909
C 1.467176094 -0.2160706847 -0.2351413662
N 0.0257217704 -0.0732947305 -0.2546694043
C -0.66063226 -1.033533084 0.1717356028
O -1.9948992302 -1.0384946391 0.2230904764
C -2.6409522298 0.14047984 -0.2396625321
H 1.7877360016 0.7435582251 1.6767364385
H 3.1937601196 0.7837884459 0.6022226223
H 1.8087207337 1.8470682515 0.2985573466
H 1.7759318318 -1.2141810358 0.1106246385
H 1.828590565 -0.1081670589 -1.2616828052
H -0.261270665 -1.9788057006 0.5513295721
H -3.7070535 -0.0387578393 -0.1210973467
H -2.397576861 0.3275023424 -1.2867225957
H -2.3300252719 1.0054981362 0.3482445048
