9
0
O -1.9300186341 0.8859760043 -0.0130996035
C -1.278338207 -0.1081679042 0.737544647
C 0.1391966839 -0.2504329683 0.3938950566
C 1.3042768406 -0.3313953596 0.1192266719
C 2.6411723414 -0.4317221392 -0.2004487032
N 3.7574145054 -0.5134118006 -0.46556346
H -1.4860756805 1.7255784585 0.1256043092
H -1.791190721 -1.0479150181 0.5258761329
H -1.3564371426 0.0714907272 1.8168986779
