11
0
N -1.7800222793 -0.5146967042 0.0585362368
C -0.4930191132 0.0083549306 0.0234301332
C 0.003070659 1.2412768197 0.1451199372
O 1.3880074241 1.1804702238 0.1489619986
C 1.7671033723 -0.1194075514 0.0115952945
O 2.8991783058 -0.5070046333 -0.009648552
N 0.6010589372 -0.8412786717 -0.0907564065
H -2.0401603579 -0.9938025277 -0.7923003692
H -2.4724769247 0.1790994743 0.2918476946
H -0.4528144151 2.209324011 0.2412661561
H 0.5800743917 -1.8423353713 -0.0280521233
