14
0
C -1.8394007813 0.3099393076 -0.5250748044
C -0.4169473745 0.099077256 -0.1349643857
C 0.6375287226 0.8643727956 -0.3673723941
C 1.8683453536 0.2448349081 0.2158478659
O 1.4220893333 -0.9624001461 0.8166030157
C 0.0265106743 -1.1119569208 0.6354068731
H -2.1928000601 -0.5051835411 -1.1623894878
H -1.9681825236 1.2472537277 -1.0655013608
H -2.4854746362 0.3295726026 0.3567143939
H 0.6391235381 1.8064115602 -0.9000661286
H 2.3406803884 0.881747897 0.9745072218
H 2.6261096466 0.0198509782 -0.5454805912
H -0.4736958769 -1.1809374904 1.6110996055
H -0.1838864045 -2.0425829347 0.0906701767
