13
0
O 1.2679041784 -0.4764616067 1.4485984361
C 0.3788749337 -0.1375735672 0.44963959
C -0.5863757134 -1.0122462662 -0.3696149194
N -0.9008235551 0.3947876143 -0.8482625267
C -0.8180237588 0.7902995063 0.6211254617
C 0.6017940141 0.6135804352 -0.874520107
H 1.9332784224 -1.0691237514 1.0924014968
H -0.1715602681 -1.6533595388 -1.1495030581
H -1.4146657135 -1.4915489619 0.153207398
H -0.6245778134 1.8518805303 0.7778184749
H -1.6596606377 0.4364167976 1.2170741441
H 1.1016000149 0.0896895063 -1.6913049543
H 0.8922358964 1.6636593024 -0.8266594363
