13
0
N -1.5141469893 0.3464942127 -0.6820386201
C -1.4487876014 -0.1474138002 0.5721638429
O -2.3966892208 -0.2191493877 1.3245414503
C -0.0730620563 -0.6560734012 1.0068939039
O 0.9542811893 0.3397646225 0.9735451574
C 1.6492038252 0.5123210587 -0.1449743381
N 1.3714241731 -0.0410261413 -1.2455514407
H -2.4070163547 0.6539647838 -1.0238762477
H -0.7214928883 0.2590460047 -1.3006091398
H 0.2226221121 -1.5072376338 0.3886918114
H -0.1580618889 -0.9519372722 2.0482783902
H 2.476132547 1.1991122704 0.0401798253
H 2.0455931532 0.2121346834 -1.9572445951
