10
0
O 2.3839530731 0.2824340451 -0.1861634341
C 1.181274761 0.1399295264 -0.1177334926
N 0.4594953856 -1.0344777794 -0.0576248391
C -0.9038558954 -0.7818966786 0.0116750251
C -1.0623560893 0.5490589994 -0.0026178829
N 0.2037991813 1.113341732 -0.0811526171
H 0.9063195106 -1.931245251 -0.0683905655
H -1.6367055123 -1.5671113956 0.0680075756
H -1.9598882974 1.1405264482 0.0351325136
H 0.4279638828 2.0894403537 -0.1116086806
