15
0
C -0.2925943493 1.5053124015 -0.2410910304
C -0.1381381338 0.0813476945 0.2088519376
C -0.8620107276 -1.0411253422 -0.4499003048
C -1.2209694363 -0.6190932302 0.9532659469
O 1.1628829701 -0.2175290474 0.7121497531
C 2.1518581317 -0.3512130828 -0.1749825062
O 2.064905281 -0.2457603509 -1.361904214
H 0.3471364441 1.7134984613 -1.0985243231
H -0.0366841956 2.1893746211 0.5703388582
H -1.3272438652 1.6927309081 -0.5299160504
H -1.5343901927 -0.7964035665 -1.2612462006
H -0.3299243127 -1.9748883273 -0.5685552751
H -2.1467520244 -0.0832584644 1.1167119683
H -0.9201220647 -1.2729143501 1.7605728703
H 3.0820464755 -0.5800783244 0.36422857
