13
0
O 2.3198624974 1.339022632 -1.0239513007
C 1.8700560926 0.2714513276 -0.6686585762
N 0.6098287465 0.0785555601 -0.2534280254
C -0.513678758 1.0009477605 -0.1850362166
C -1.4049746894 -0.1940934595 0.2318045059
C -0.1544794481 -1.1019904574 0.1328551564
H 2.4682234137 -0.659786355 -0.6510820236
H -0.3861794938 1.7852071106 0.5632017313
H -0.7536209324 1.4628967747 -1.144522004
H -1.8309497321 -0.1186148924 1.2295421182
H -2.1932346211 -0.4374184592 -0.4766380133
H -0.2020530289 -1.8744568214 -0.6380682835
H 0.1711999535 -1.5517207204 1.0734379683
