13
0
C 1.9256623002 -0.017725152 -0.084383947
C 0.439837199 0.0666869233 -0.0100468095
C -0.394479999 1.1401151754 0.1629262497
C -1.7314573707 0.6571527048 0.1589523162
C -1.6714059031 -0.6962809395 -0.0169444371
N -0.3517374925 -1.0438231999 -0.1178550395
H 2.3370588154 -0.6425783676 0.7128311006
H 2.2624658623 -0.4289386147 -1.0398132068
H 2.3569836484 0.9769498234 0.0178463657
H -0.0769885733 2.1645728139 0.2807268695
H -2.6326842173 1.238746574 0.2701487924
H -2.4515776856 -1.4372370667 -0.0815916536
H -0.0116765838 -1.9776406745 -0.2527966007
