17
0
C -2.0598908468 -0.5166571052 0.2452542911
C -0.8465441566 -0.0373614211 -0.5186948022
O -0.5251151895 1.2793550058 -0.082647457
C 0.8442171872 1.5254940856 -0.3480425037
C 1.5291397484 0.1836894247 -0.2162565533
C 1.1417959706 -0.6246282648 0.9841203144
C 0.4309214045 -0.8295960781 -0.3197174853
H -2.8942100805 0.1707724585 0.1012474041
H -1.8404185031 -0.578160877 1.3122003882
H -2.3630611689 -1.504868708 -0.1056405653
H -1.0741834952 -0.0200643906 -1.5960790119
H 0.9826154073 1.9208877742 -1.3638823126
H 1.185311844 2.2763087031 0.3679412219
H 2.4930176467 0.0359618807 -0.6845295305
H 0.6141285588 -0.1233867066 1.7871649034
H 1.8249229997 -1.4012673518 1.3007824392
H 0.5573526732 -1.7564784295 -0.8632207406
