15
0
C -1.7906105443 -0.945276996 0.2021797232
C -0.7315392775 -0.0132942442 -0.3105436822
C -0.5436664242 1.358470508 0.2177462337
N 0.3744822824 0.2915303705 0.5802528717
C 1.6865417528 0.3653058707 -0.0263981362
C 2.2697902731 -0.9743450972 -0.1572627754
N 2.7200394848 -2.0212219128 -0.2807763686
H -1.9889107448 -0.7506235547 1.2565299559
H -1.4690147339 -1.983282048 0.1018530126
H -2.7198276148 -0.8187922403 -0.3568848362
H -0.4670094622 -0.143633815 -1.3590811745
H -0.1904789048 2.1222917692 -0.4696567488
H -1.1710004161 1.7217899034 1.0232923887
H 1.6786579499 0.8236219187 -1.0273326772
H 2.3425463793 0.9674595678 0.6060822134
