9
0
N -1.5243656293 -0.2550524653 0.0985501746
C -0.1515509051 -0.2182931282 0.0973595412
N 0.5936556546 -1.2432931321 0.3831616857
O 1.877386138 -0.7874353574 0.3493186959
N 1.9267556249 0.5132503368 0.0310001897
C 0.702986212 0.899572475 -0.127637835
H -1.912886589 -1.1839174238 0.1103406268
H -1.9759721947 0.3557906542 -0.5595529185
H 0.4639916885 1.919378041 -0.3825401604
