12
0
C 1.3658811138 -0.3359484592 -0.218059991
C 0.1619639092 -0.2375401806 0.6814441909
C -1.2175496488 -0.3582532351 0.1094498075
C -0.7275447166 0.966919425 0.6201442253
H 2.2304635043 0.1693115137 0.218478392
H 1.1650955849 0.1271852881 -1.1873496626
H 1.6409537609 -1.3776382939 -0.3995809492
H 0.2967622913 -0.6687626873 1.6678125863
H -1.9725882052 -0.8797168568 0.6830370491
H -1.3069167026 -0.4843793294 -0.9628084869
H -1.1494283261 1.3489529373 1.5405071625
H -0.4870925651 1.7298698783 -0.1102207706
