12
0
C 1.8987962226 -0.1536765262 0.027521393
C 0.4170905636 -0.1921843892 0.0721804347
N -0.2831314117 -1.1906956859 0.4883227284
N -1.5841223746 -0.785949655 0.348669865
C -1.7209665773 0.4751627391 -0.1608177656
O -2.7190819654 1.1136031628 -0.4034045784
N -0.3901620531 0.8424742399 -0.3313658611
H 2.2554803244 -0.0163449261 -0.9951410793
H 2.2860621445 -1.0944294619 0.4122079726
H 2.2872341486 0.6644035276 0.6370556173
H -2.3380699063 -1.3953888436 0.601884225
H -0.1091291154 1.7330258184 -0.6971129513
