12
0
C -1.3522063266 0.6124620172 0.3379801453
C -0.6552306693 -0.6466668745 -0.088828527
O -0.0849128913 -0.6873774838 -1.3794716612
C 0.8000884052 -0.7772938684 -0.2739644633
C 1.7080333977 0.3858975069 -0.05951837
O 2.6944387281 0.3230061451 0.6201250964
H -1.4368286906 0.645653071 1.4256978887
H -0.825779634 1.5039530771 0.0009235942
H -2.3593840576 0.6350377883 -0.0809899896
H -1.1664443167 -1.5679091143 0.1862317798
H 1.2644822113 -1.7460993335 -0.1094069571
H 1.4137438437 1.319337069 -0.5787785361
