13
0
C -1.6007225078 0.4104560292 0.1745848343
C -0.635490496 -0.7106232726 0.4248854275
O -0.0965154367 -1.3825254007 -0.7067619456
C 0.7978318882 -0.6610773906 0.1309317682
C 1.5081991201 0.5176992505 -0.4665602589
H -1.7370239369 0.9995192779 1.0841648357
H -2.5731154346 0.0084370328 -0.1159606077
H -1.2606797826 1.0717082907 -0.6207494126
H -0.9399348676 -1.392460792 1.2187378894
H 1.4352181121 -1.3083109771 0.7330859292
H 0.8417157098 1.1295849004 -1.0721399372
H 1.9360997914 1.1404944666 0.3221337693
H 2.3244178405 0.177098585 -1.1063522917
