14
0
O 1.3889481628 -1.3521230865 0.9298361664
C 0.8589986337 -0.7221993106 -0.2308746615
C -0.6705483045 -0.8535581488 -0.3736389493
C -1.2602196571 0.5012666497 0.059187578
C -0.0702592768 1.4213154171 0.0106110969
C 1.0684269252 0.7696405031 -0.1861164945
H 1.113357428 -0.8404365399 1.6943848165
H 1.3806410321 -1.2020867313 -1.060574587
H -0.9179068906 -1.0427489511 -1.4197615125
H -1.0382965964 -1.699404821 0.2073505625
H -2.0610764738 0.8317536801 -0.6059095969
H -1.6897489822 0.4775232182 1.0661222259
H -0.1559256754 2.4940112552 0.1407650996
H 2.0536096752 1.217046866 -0.2313817442
