17
0
C -1.1918805563 -1.2493430753 0.4801578183
C -0.6089997461 -0.0438770578 -0.2082028961
C 0.8350507415 -0.1508862962 -0.6544741517
C 1.8245358469 0.0408416474 0.4909677458
O 1.8810039803 1.3769918237 0.9340868181
C -1.5015126769 0.9152503673 -0.8558940023
O -0.93900586 1.2075460861 0.4163000112
H -1.2343754549 -2.0969029549 -0.2069081023
H -0.5814035841 -1.5394703299 1.337459495
H -2.1993437969 -1.0363773195 0.8364481847
H 1.0488539562 0.6014389196 -1.4173003729
H 0.9871446382 -1.1331763971 -1.1111657304
H 2.8300969635 -0.2182743935 0.1535835744
H 1.5800667856 -0.6375128382 1.321041703
H 0.9760693799 1.6981665231 1.0087651575
H -2.5740638756 0.74190033 -0.8483543424
H -1.1322367413 1.5236849651 -1.6765109098
