15
0
C 0.7396744894 1.1406553037 0.2432815372
C 1.3630605294 -0.2000027147 -0.11182775
C 0.3792272372 -1.2946891785 0.20467793
O -0.6306599022 -1.0483945103 1.1508900913
C -1.4578408746 -0.0187560909 0.610140305
C -0.5777441011 0.6614142261 -0.4235686967
C 0.1981906364 -0.5225898976 -1.0440492564
H 0.6866001643 1.4084886173 1.3017818562
H 1.1990242484 1.9549867568 -0.3165054167
H 2.4170526078 -0.4031513005 -0.2527754225
H 0.7236675384 -2.3195661433 0.1905950617
H -1.7556019208 0.644657193 1.4249810529
H -2.3560750429 -0.4560739575 0.1556067077
H -1.09180964 1.359180901 -1.0799762519
H 0.1632340304 -0.9061592046 -2.0532517479
