14
0
C -1.6627564223 -1.0547532381 0.1661483476
C -0.272005028 -0.5439290603 0.1036704611
C 0.2677214238 0.6619610599 -0.2055391885
N -0.3882951643 1.8267037139 -0.6288108912
C 1.6895486475 0.5059600299 -0.1041316574
C 1.8963482354 -0.7769816189 0.2587738718
O 0.7278651354 -1.4335879723 0.3833866004
H -2.3731161144 -0.2396619716 0.0228511073
H -1.8564013591 -1.8004997794 -0.6089117345
H -1.8725707612 -1.5147542613 1.1342576009
H -0.0020856937 2.6623993785 -0.2179945124
H -1.3834741909 1.8011330124 -0.4692834045
H 2.4419647456 1.2554258469 -0.2900269022
H 2.7872565463 -1.3494151392 0.4556103017
