15
0
C -0.0123701399 1.3751818934 0.5909181587
C -0.094064426 -0.0798366771 0.1557298926
C 1.2953304532 -0.634892539 -0.1472901064
C -1.0148858377 -0.2334376207 -1.0520118938
O -0.6521834581 -0.7715643261 1.2742092474
H 0.4040558616 1.9957723855 -0.2043740371
H -1.0061241328 1.7486580971 0.8421310322
H 0.6203136635 1.4681436769 1.4748205462
H 1.9341397401 -0.5516232996 0.7332246948
H 1.2373833516 -1.6901627341 -0.4296144543
H 1.7665099234 -0.0964437552 -0.9723227119
H -0.6341535029 0.3189914216 -1.9135610009
H -1.1004519407 -1.284604458 -1.3424259737
H -2.0131266276 0.136928366 -0.8136479636
H -0.7303729279 -1.7011104306 1.0481309679
