11
0
N 1.8142085678 -1.0873227228 -0.4123276631
C 0.766830897 -0.4270288153 -0.2240577175
C -0.5074561212 -0.9263785488 0.4102230592
O -1.4526498807 0.0737411904 0.0852176353
C -0.7209114756 1.251153247 -0.062740092
O 0.5605163058 0.874752214 -0.55150026
H 2.5416622344 -0.5203942348 -0.8398378397
H -0.8264028663 -1.8797451432 -0.0041501289
H -0.3757738951 -1.0249963473 1.4948811226
H -1.2092948002 1.8956190059 -0.7923284285
H -0.5907289656 1.7706001548 0.8966203125
