16
0
C 1.6933486652 0.8112867949 -0.0417923608
C 1.0703913621 -0.4080110747 0.5132437602
C -0.4007280187 -0.4054163245 0.9270651481
C -0.9786999732 -1.1830756791 -0.2972062802
C -0.4976769478 0.0956423479 -1.0265570221
C -0.9672338283 0.8498573412 0.2356530586
N 0.9760740785 -0.1029717301 -0.9272573059
H 2.7647286425 0.8005163144 -0.2056787562
H 1.294270909 1.791626803 0.179726427
H 1.6858904036 -1.253050347 0.8029533515
H -0.6391611304 -0.663028168 1.956660837
H -0.4919833162 -2.1157220046 -0.5834050753
H -2.0624304858 -1.2935300946 -0.2693104327
H -0.8162714329 0.3655030796 -2.0305379828
H -0.5764264828 1.8358812588 0.4772938321
H -2.0540924448 0.8744914827 0.2891488013
