18
0
C -2.0411047577 -0.6230285159 -0.8466436288
C -1.5034839055 -0.1214374606 0.4802844958
N -0.0666546804 -0.3193388177 0.5604650794
C 0.6730888273 0.532648851 1.475037135
C 0.7767950557 0.7215385012 0.0114974216
C 1.9676337332 0.238106518 -0.7847878702
O 2.4580140143 -0.9836425307 -0.2955504911
H -3.1224932598 -0.4882749709 -0.9031152618
H -1.8174885034 -1.6830744284 -0.9747083692
H -1.5897468533 -0.0805199267 -1.6804625349
H -1.7625792054 0.9407783461 0.6164447435
H -1.9617840339 -0.6704931329 1.3070431599
H 0.1079740787 1.2727936768 2.0345175818
H 1.4790158512 0.0520403779 2.0166035478
H 0.2732066154 1.5951280729 -0.3993997695
H 1.6713996933 0.1471914316 -1.8399408052
H 2.7793452442 0.9677458851 -0.7293931878
H 1.6788620857 -1.498161877 -0.0478912459
