15
0
C 2.3055982327 0.2548252337 0.0035427127
N 0.9006443807 -0.0607273332 -0.0019020988
C 0.3668074161 -1.2950461852 0.1655747654
C -1.0007319932 -1.1851601555 0.1930075792
C -1.3107837002 0.1896674679 0.0347038295
N -2.6025704166 0.7397881392 0.0607465751
C -0.1183358343 0.8617134921 -0.0791235786
H 2.8760886724 -0.6521386343 -0.192403586
H 2.5323239546 0.978406306 -0.7803082335
H 2.6213486827 0.6652484937 0.9658687997
H 0.9972599993 -2.1662153386 0.2508048954
H -1.7031183632 -1.995879061 0.3104042562
H -3.2929077978 0.1172108637 -0.3286364815
H -2.6602657553 1.6360649681 -0.3959499593
H 0.0886425225 1.9122417433 -0.2063294752
