10
0
O -1.7030417778 -1.0728388848 -0.0643635361
C -0.62396474 -0.2629245667 -0.0280610836
C -0.4275279726 1.0851087782 -0.0562531366
N 0.9234087893 1.349725308 0.0102469102
C 1.5129755677 0.1948394564 0.0757322202
N 0.6099257191 -0.8322922998 0.0557949066
H -2.4962074391 -0.535810238 -0.1062841553
H -1.1655359132 1.868901632 -0.1220034611
H 2.5762653174 0.0236880013 0.1390298727
H 0.793702449 -1.8183971862 0.0961614631
