16
0
C 1.8622570965 -0.2854111386 0.3380518266
C 0.4542401247 0.046395692 -0.0467847138
C -0.0847958188 1.4407375404 -0.0533813883
C -0.7448917085 0.4130345173 0.8146840761
C -1.6574762229 -0.4629585378 -0.035310657
C -0.4370956962 -0.8360675601 -0.9215112663
H 2.2256165185 0.3894307009 1.1159435443
H 2.5339852348 -0.1955380634 -0.520128133
H 1.9378393406 -1.3076623828 0.7172911607
H 0.5210694532 2.1699025955 0.4714223703
H -0.6033451903 1.832676398 -0.9241635568
H -0.7988138321 0.5303824499 1.8896361849
H -2.0516147707 -1.3245863493 0.5025776112
H -2.4870915835 0.050976095 -0.5267216066
H -0.4856888425 -0.5671643844 -1.9796826147
H -0.184194103 -1.8941475725 -0.8419228375
