11
0
C -1.518421347 0.5350187709 0.0195458976
C -0.3146991703 -0.3635812039 -0.1149779561
O 0.855801213 0.4726590721 -0.1295437529
C 2.0207275864 -0.1541377295 -0.2629537932
O 2.1731417523 -1.3361435411 -0.3692144196
H -1.5800531141 1.2312465895 -0.8175129223
H -2.4279759819 -0.0673631259 0.0323510208
H -1.474693982 1.1097989721 0.9452774066
H -0.3384465225 -0.9453863863 -1.0383588485
H -0.2307885356 -1.0653598792 0.717096882
H 2.8354081017 0.5832484614 -0.2618478599
