15
0
C -0.8705031567 1.2650174816 0.3655159433
C -0.6461402883 -0.2041150305 0.6429574494
C -1.1427456497 -1.2066504824 -0.4071679624
O 0.1783770694 -1.7326590396 -0.6086065664
C 0.7476631166 -0.815188827 0.3368093088
C 1.7584215048 0.0651366587 -0.241112377
C 2.5882406431 0.7968267898 -0.6991011176
H -1.9276126446 1.5148715987 0.4788116017
H -0.3000135957 1.8884896568 1.0563082726
H -0.5639204757 1.526393786 -0.6487904949
H -0.9689221338 -0.4565477864 1.6531590264
H -1.5383413102 -0.7544182012 -1.3221077467
H -1.8350402341 -1.9758108867 -0.0556984052
H 1.191598414 -1.3516800681 1.1810503244
H 3.3289387409 1.4403343501 -1.1117897381
