14
0
C -1.1765959119 -1.0956589297 0.1700943859
C -0.2758767297 0.1252231774 0.2460224481
C 1.1598669598 -0.195804205 -0.1607573661
O 1.9769699119 0.9163083119 0.1504586258
C -0.7964892843 1.2800974925 -0.5806878284
O -1.8352369018 1.265798047 -1.1847684904
H -2.2036618228 -0.8346266262 0.4211882155
H -0.836746785 -1.87051983 0.8590848162
H -1.1887192779 -1.5123446884 -0.8390184462
H -0.2252801106 0.4983573203 1.2775597616
H 1.4901204574 -1.0905174745 0.3810743154
H 1.19591578 -0.4245282007 -1.2346957166
H 2.858197999 0.7655808302 -0.1931448438
H -0.142464284 2.1726347752 -0.6016268957
