15
0
C -2.2087433711 0.0602474565 -0.7707367921
C -1.0678136624 -0.4682070111 0.0878179481
C 0.2541514432 0.210386121 -0.2297797631
C 1.4030827118 -0.2776213841 0.6006782679
O 1.33536115 -1.1254104814 1.4529707789
C 2.7793281346 0.354106736 0.3458242
O 2.9751899221 1.1974438493 -0.4803394098
H -2.3563630755 1.13233499 -0.6189402543
H -3.1469937081 -0.4405027501 -0.5278497978
H -2.0130149415 -0.0991679696 -1.8338992291
H -0.9592305627 -1.5465592033 -0.0515752859
H -1.2969513578 -0.3273586242 1.1468622996
H 0.5335966847 0.0828707653 -1.28207652
H 0.1942962593 1.2970041099 -0.0964240827
H 3.5741043734 -0.0495666042 1.0028540413
