16
0
C 1.5753220396 -0.2842557554 0.7295551678
C 0.5855056627 -0.9604983058 -0.1846617637
C -0.9009137883 -0.7872120039 -0.1289374101
C -1.288025612 0.6517895076 0.2017868337
C -0.4817048148 1.1376772539 -1.0326327117
C -0.1070156415 -0.3094358524 -1.3415066912
H 1.648427814 -0.8169816989 1.68028636
H 1.3006046839 0.7472055076 0.9529250243
H 2.5690132178 -0.2674642884 0.2763846725
H 0.8516376071 -1.9886453194 -0.4145188137
H -1.5639135906 -1.6391256061 -0.0516749302
H -2.355832682 0.8329601015 0.0856880032
H -0.9794903878 1.025458166 1.1809282745
H 0.345877139 1.8272248242 -0.851003571
H -1.1286405256 1.5715834021 -1.7940063247
H -0.0708511214 -0.7402799326 -2.3336821844
