12
0
C -2.0093706006 0.7505814967 0.034257478
C -1.3026531883 -0.6019952691 -0.0737335846
C 0.1500791105 -0.4774858659 -0.0885973071
C 1.3455055883 -0.3493912133 -0.0976909709
C 2.7140949924 -0.2031766565 -0.1074819746
C 3.9070729245 -0.0711210691 -0.115289201
H -3.091352184 0.6126325553 0.0397786738
H -1.7228380501 1.2649221977 0.9518383999
H -1.7485530615 1.392323006 -0.8076549726
H -1.6183069908 -1.1206758714 -0.9831463221
H -1.5882187866 -1.2452161196 0.7632181545
H 4.9645402462 0.048602809 -0.1220513323
