19
0
C -0.8467714196 -1.6071130203 -0.6514215855
C -0.6358413486 -0.1088208579 -0.5155631799
C -1.1059792916 0.4969705 0.8049233612
C -0.3934276863 1.8385934946 0.7924104638
O 0.8453631261 1.6143991413 0.1364386981
C 0.8229062875 0.3818053266 -0.5844295933
C 1.8589582119 -0.5583241754 0.007339751
H -1.9116453441 -1.8472789244 -0.6311949819
H -0.4415173879 -1.9857122528 -1.5925849955
H -0.3689907859 -2.1540187325 0.163865025
H -1.1802709079 0.3932084782 -1.3227573542
H -0.7680539377 -0.1146386077 1.6465844918
H -2.1906132185 0.5920248158 0.8700066337
H -0.1907109499 2.2360088448 1.7889684892
H -0.9769225156 2.5853425023 0.2383080918
H 1.0970895295 0.6001203055 -1.6226824633
H 1.6026445056 -0.8382377385 1.0316720217
H 1.9569190591 -1.4674951908 -0.5893476408
H 2.8268640735 -0.0568339093 0.029464767
