12
0
N 2.8199726903 1.2187550452 0.0860088117
C 1.9830563473 0.4416702288 0.1884329982
C 0.9104685056 -0.5562238377 0.2895187687
O 0.0450350354 -0.3522380874 1.4181681897
C -1.0921156155 -0.3408886363 0.552832215
C -1.0222141484 0.8094381467 -0.3805413442
C -0.2508046795 -0.44588446 -0.6869360719
H 1.3532443455 -1.5541637915 0.3228372628
H -1.982364299 -0.8587013296 0.8801762443
H -1.8922453187 0.9556134546 -1.0080467229
H -0.5064172831 1.7135407846 -0.0767278256
H -0.3656155798 -1.0309175177 -1.5857225261
