13
0
C -1.9210313295 -0.102923711 -0.3950780739
C -0.5387883246 0.4889401349 -0.1601308724
C 0.5318169882 -0.5949853072 -0.0018883944
C 1.8678358839 -0.049415575 0.221092266
C 2.9549145451 0.4196243725 0.4018918896
H -1.9393504178 -0.7160194814 -1.2995708086
H -2.2281196065 -0.7360870559 0.4409044367
H -2.6711297354 0.6805979547 -0.5121680662
H -0.2613039378 1.1423907303 -0.9909367356
H -0.5433067475 1.1144553895 0.7360465048
H 0.2729270786 -1.2522237169 0.8337846478
H 0.5524462522 -1.225892786 -0.8958137171
H 3.923089351 0.8315390519 0.5611076667
