9
0
C 1.1082278028 -0.2881665058 0.243145374
C -0.129791598 0.5514273897 0.2583222324
O -0.2410247933 1.6150674515 0.8098179485
C -1.3555697772 0.0095675817 -0.490306913
O -1.3526530124 -1.0294509469 -1.0842293979
H 1.9097320394 0.2212167476 0.7721628131
H 1.3999047444 -0.4982347504 -0.7875728978
H 0.900679715 -1.2546138874 0.7075181916
H -2.2395051207 0.6731869201 -0.4288573509
