10
0
O 2.2146568334 0.1703958256 -0.5024862626
C 0.8875530555 0.0125784524 -0.3570047458
N 0.3311811512 -1.1786571259 -0.3286875987
N -0.9815978645 -0.9238543492 -0.1737849382
C -1.2499027711 0.391108609 -0.1050217193
C -0.0526624676 1.0522871713 -0.2202620967
H 2.6042808219 -0.7062813484 -0.574032441
H -1.6256456038 -1.6899663253 -0.123956459
H -2.2559590834 0.7596509605 0.0179799102
H 0.1280959286 2.1127381298 -0.2093945212
