12
0
C -3.3450533683 -0.000692143 0.001587422
C -1.8905383315 0.0001104894 -0.0012060526
C -0.6884100177 0.0007722855 -0.0020582259
C 0.6884321535 0.0010715618 -0.0018608021
C 1.8905526176 0.0008020885 -0.0007493945
C 3.3450517432 -0.0008893959 0.0014687755
H -3.7320892997 -0.9066988046 -0.4675974567
H -3.7333365521 0.8599519661 -0.5454765692
H -3.7289801532 0.0441280473 1.0221556653
H 3.7337853491 0.8670075149 -0.5336947266
H 3.7307837655 -0.9005569113 -0.4808095621
H 3.7296281098 0.0291188696 1.0223323147
