17
0
C -2.0729332015 0.2068846422 -0.011905073
C -0.5817250402 0.0637204793 -0.0326061726
C 0.3618711002 0.2269461427 -1.2550532762
C 1.2639390014 -0.1111765586 -0.0641019691
O 2.6361412827 -0.2247926238 -0.1631534221
C 0.2404210021 -1.1972702618 0.3392497653
C 0.4463702653 0.8945624589 0.7776321623
H -2.5431213437 -0.5139270813 -0.6841429135
H -2.465761085 0.0383033174 0.9930619059
H -2.3717680209 1.2085718267 -0.3278657005
H 0.4560561865 1.2331238471 -1.6670310125
H 0.2815111507 -0.5315103272 -2.0356197134
H 2.9921003719 -0.439419674 0.7015169227
H 0.2220668247 -1.4928635779 1.3911175757
H 0.1489930154 -2.054443721 -0.330038049
H 0.4423229779 0.7453694002 1.8601369617
H 0.543515512 1.947921711 0.5088020082
