17
0
C -1.6487538138 -0.5192764881 -0.4218144967
C -0.6023188416 0.4412109274 0.0694865177
O -0.8996693052 1.7857274079 -0.2252388678
C 0.1741553289 0.1875643425 1.3405385755
C 0.8708831539 0.1615439832 -0.0007432696
C 1.4257562509 -1.1197440915 -0.5524375199
O 1.6917840864 1.2400187564 -0.3261671826
H -2.6060571367 -0.3178444212 0.0662235377
H -1.7859037198 -0.4121072354 -1.4992831342
H -1.3800406205 -1.553067533 -0.206989777
H -1.4874545645 2.1296199376 0.4501511258
H 0.3848294311 1.0433154233 1.9703648299
H 0.0073620943 -0.7455105429 1.8652603525
H 2.4495067997 -1.248726942 -0.1972240997
H 0.8459776461 -1.9857521821 -0.2347284056
H 1.445807278 -1.0882637983 -1.6433046071
H 1.1141359327 2.0012924566 -0.454093579
