14
0
C -0.1649362165 1.4079637116 -0.0763489813
C -0.2162106099 -0.0987500748 -0.2370788854
C -1.526010962 -0.7062779323 0.2150335419
O 0.8125437954 -0.7078989223 0.5828067847
C 2.0451256073 -0.7483428649 0.0885220419
O 2.3989393946 -0.330263788 -0.9762417289
H -0.9562252774 1.8715687911 -0.6678979319
H -0.3118061368 1.683549959 0.9699930951
H 0.7911850118 1.8025919769 -0.4186832174
H -0.0065020603 -0.3662135586 -1.2748214488
H -1.5111899113 -1.7904844221 0.1007808105
H -2.3466739096 -0.3078678418 -0.383361023
H -1.7183850736 -0.471278794 1.2635957784
H 2.7101463482 -1.23829624 0.813701164
