13
0
C 1.8262893385 0.1507835066 0.6960734733
O 0.8820434842 -0.7420262761 0.1565316287
C -0.0964716264 -0.0976293214 -0.5872323255
C -1.4169002143 -0.7682160547 -0.670029421
C -1.2694020747 0.5061506492 0.124200503
H 1.3509334785 0.8828719695 1.359807672
H 2.3614865234 0.6922178897 -0.0942429245
H 2.5410666956 -0.4400681281 1.2671408922
H 0.279602998 0.4136412452 -1.4721896562
H -1.951936134 -0.740873987 -1.6096668284
H -1.5191289886 -1.687192308 -0.1086309033
H -1.7031881719 1.4181668914 -0.2642756115
H -1.2843953084 0.4121739236 1.2025135013
