11
0
C 1.2784269987 -0.1719637227 0.2269817662
N -0.1399695937 0.0269283736 -0.0203832579
C -0.690980437 1.2937560621 -0.0298559674
O -0.077620362 2.3069776275 0.1591111907
C -0.9421485968 -1.0696642427 -0.2582200967
O -0.5394935311 -2.1998854517 -0.2721888922
H 1.7462961084 -0.6300620177 -0.643509341
H 1.414817076 -0.831656239 1.0824327557
H 1.722258792 0.7998050926 0.4231732457
H -1.7747427494 1.2778412712 -0.2314485295
H -1.996843705 -0.8020767532 -0.4360928735
