18
0
C 1.849603469 -0.6329404506 0.0071930569
C 0.5713515575 0.076970621 0.4411591105
C 0.5598622677 1.5271697334 -0.0307024852
C -0.6788022726 -0.7098523429 -0.0132401889
C -1.996179438 -0.1609483364 0.5411070626
C -0.7426108767 -0.7861911924 -1.4781077912
N -0.7930928762 -0.8290015829 -2.6238679638
H 1.8726055608 -1.6668972171 0.3590256863
H 2.7275580775 -0.1241205316 0.4082967785
H 1.9399415005 -0.646465569 -1.0818788701
H 0.5306228809 0.0699845939 1.5362390604
H 1.4540389849 2.0440992688 0.3211534429
H -0.3053287123 2.0754355706 0.3443802407
H 0.5506065161 1.5826027091 -1.122396428
H -0.5607491621 -1.7402228002 0.3373180087
H -2.8266236728 -0.8191493835 0.2863383186
H -1.9352766599 -0.0881008873 1.6282212356
H -2.2175271443 0.8276277971 0.1397617256
