12
0
C -1.8715850369 0.0491298693 -0.4518934762
C -0.5699234968 0.18718373 0.3152450191
C 0.649701666 -0.1594787152 -0.5029661686
O 0.610690822 -0.4939830757 -1.6589755882
C 1.9252351489 -0.0627482898 0.2085596509
C 2.957819596 0.0196870135 0.810068579
H -2.7167957147 0.3151025654 0.1836064137
H -2.0120072746 -0.9736199427 -0.8022396293
H -1.8804813402 0.6966758403 -1.3286652992
H -0.5528464822 -0.4486968624 1.2068229135
H -0.4248387942 1.2062868807 0.6900928818
H 3.8850309067 0.0857823986 1.3303447036
