16
0
C -2.0391954042 -0.0777082573 -0.8332847053
C -0.5612235273 0.2460936862 -0.7030291806
O -0.3769543831 1.4845938364 -0.0124990188
C 0.1806995946 -0.8278115558 0.0797865916
C 1.7013614608 -0.7694533535 0.0510215411
O 2.3704060866 -1.7793685973 -0.0323066778
N 2.2461672681 0.4660293143 0.1454626648
H -2.4943967255 -0.1796238288 0.1538681657
H -2.1840127217 -1.0084855373 -1.3840743929
H -2.5652174265 0.7134792873 -1.3735157817
H -0.1166619514 0.3257758675 -1.7043543952
H -0.8362623883 2.176755899 -0.4914715201
H -0.1407212898 -0.7784718714 1.1253466759
H -0.0891032033 -1.8130971832 -0.2981183302
H 3.2468424387 0.5436296608 0.1639607495
H 1.6582721724 1.2776626331 0.2356554989
