13
0
C -1.5720789574 -0.6919691988 0.0119980322
C -0.2405226376 -0.0680560316 0.2215147569
C 0.1880360039 1.3311307801 0.0342335064
C 0.9276284471 0.202447114 -0.6842445081
C 1.7086248475 -0.5393555151 0.3546977076
O 2.8034720722 -0.9615136418 0.5032930415
O 0.6362292299 -0.6752477805 1.2116186022
H -2.1927255849 -0.5674656604 0.9008736929
H -1.4694242508 -1.7576395955 -0.1945649097
H -2.0780913858 -0.2163018196 -0.8284910309
H 0.6712474157 1.8624965076 0.8447763405
H -0.4272629429 1.9366423941 -0.6209347845
H 1.0448677428 0.1448324476 -1.754770447
