21
0
C 2.3749914092 -0.1655574754 0.1302222983
C 1.0704847254 -0.4550987639 -0.5823696615
C 0.037811194 -1.3895483914 0.0789994129
C -1.0807051714 -0.5096494736 -0.5142454059
C -2.3496607508 -0.2857774504 0.2814036795
C -0.0374700306 0.6330583368 -0.6789376104
C -0.0287082494 1.6600804541 0.4406303108
H 2.2079961904 0.1826876868 1.1519612959
H 2.9903014991 -1.0668099369 0.1862801016
H 2.9544674013 0.5991294308 -0.393219021
H 1.2840899217 -0.8187655313 -1.5916348486
H 0.056536065 -2.4477292603 -0.1867256878
H 0.0703801878 -1.3070580992 1.1697199734
H -1.3399387989 -0.8852466217 -1.5082986734
H -2.1347449224 0.0737158369 1.2901918826
H -3.0020068264 0.4453581725 -0.2027570349
H -2.9117342806 -1.2179354271 0.3771326578
H -0.0808022395 1.1551413842 -1.6382775995
H 0.8313854253 2.3271381934 0.350540075
H 0.0176146171 1.196967648 1.4292396071
H -0.9302873665 2.2758992879 0.4101442486
