10
0
N -1.803572015 0.1639117325 0.1593323923
C -0.4868048666 -0.2101938651 0.134299342
N -0.0383081939 -1.3524439231 0.5185792754
O 1.3654486164 -1.243808384 0.4198041849
C 1.7148543943 -0.0253622698 -0.0485786304
O 2.8269332922 0.3648065538 -0.2328775496
N 0.5140108946 0.6330476354 -0.2540881325
H -2.1272469319 0.6514463339 -0.6608600053
H -2.4135376026 -0.5937365908 0.4253003697
H 0.4482224125 1.6123327774 -0.4609112469
