14
0
C -0.7007220091 -1.0291984422 -0.1981138378
C 0.1296699654 0.0945709319 -0.8727910209
C -0.6500873087 1.0781932693 0.0392343931
C -0.5050454306 -0.1027918107 1.0143099063
O 0.9043642097 -0.1641480163 1.2498175382
C 1.4279751234 -0.0245497249 -0.0816518993
H -1.7290142841 -1.0624392153 -0.5542072853
H -0.2693810777 -2.028860782 -0.1367213476
H 0.2017742785 0.2148177647 -1.9513535465
H -1.6740300063 1.2395918575 -0.2933613588
H -0.1723677429 2.0172533396 0.3207698968
H -1.0422061863 -0.1942724739 1.9543425146
H 2.0205291181 -0.904729421 -0.3460833101
H 2.0585413506 0.8665627234 -0.1441906428
