16
0
C -1.1593650201 1.4300280905 -0.2913953812
C -0.2592108393 0.3423405766 0.275000109
C -0.9245499247 -1.0375268558 0.1687144285
O -0.4868117972 -1.9604434377 1.1239201891
N 1.0249528019 0.4132631791 -0.4287754038
C 2.0980071616 -0.3558153324 -0.1825214233
O 2.1427643646 -1.2863337658 0.5992368443
H -0.6760706508 2.4085367375 -0.2495144298
H -2.0839118742 1.4901270345 0.2812197986
H -1.4196155221 1.2171078573 -1.3320660505
H -0.0766571128 0.5304421717 1.3382392826
H -1.9974389467 -0.9102516438 0.3335721883
H -0.790982667 -1.4090991383 -0.8586868063
H 0.4828269179 -1.965581801 1.097830559
H 1.1486620099 1.1563641122 -1.0946907104
H 2.977401099 -0.0631577839 -0.780083194
