16
0
C 1.4894752023 0.660632623 -0.0885067755
C 0.1641375701 -0.0622895375 0.0782776586
C 0.2427110078 -1.2085283477 1.0713710595
C -1.0825145814 0.859157075 0.2221291295
N -1.5246855479 0.3604897642 -1.0749968708
C -0.4648269197 -0.4742249285 -1.2688218878
O -0.1650910855 -1.2262673736 -2.154626007
H 2.2484176617 -0.0311021917 -0.4582071883
H 1.8344570741 1.0687560276 0.8643898456
H 1.4065510027 1.4809609163 -0.8043741992
H 0.5416444954 -0.8482572793 2.0584931845
H 0.9785581469 -1.9429256694 0.7391980339
H -0.7180798661 -1.7184649124 1.1673036093
H -1.7496598034 0.6030532309 1.048111132
H -0.864617466 1.9292803765 0.2380583715
H -2.3364768911 0.5497302265 -1.6377990961
