11
0
C -1.9387636241 0.1393309617 -0.2256675018
C -0.5699200246 -0.4613631724 -0.1660071168
O -0.2700537551 -1.5737188992 -0.484239374
O 0.3229251304 0.4534113951 0.3184844471
C 1.630805557 0.0743139364 0.4570069911
N 2.4410012512 0.9208885957 0.8927173998
H -2.2514788994 0.4254417917 0.7793259976
H -1.9173225859 1.0460199728 -0.8305370461
H -2.6349238769 -0.581563919 -0.6441521796
H 1.818731432 -0.9568055497 0.16287799
H 3.3689993954 0.514044887 0.9488459848
