17
0
O 1.9010639111 0.1851512528 1.2371884707
C 1.8760312936 -0.4391378674 -0.0351114274
C 0.4510818005 -0.8561699729 -0.3363128552
C -0.518369178 0.3080433859 -0.3780607802
C -2.0042803829 0.0023225271 -0.6135370292
O -2.3907467702 0.7509004585 0.54450444
C -1.0181992024 0.9058476151 0.9449305819
H 2.7886954394 0.4966967276 1.4163555614
H 2.5306663357 -1.3194037297 -0.0488032638
H 2.2280769084 0.2545272248 -0.8109513453
H 0.1243548139 -1.5819208323 0.4155788009
H 0.4457515846 -1.373775891 -1.3013498393
H -0.1516630948 1.079473547 -1.0591228646
H -2.2635258103 -1.0592672903 -0.5144126498
H -2.4542178701 0.396734385 -1.5284149388
H -0.7641267556 1.9485094925 1.1454800658
H -0.7805930232 0.3014689671 1.8249068443
