16
0
C 2.1484175658 -0.0882552355 -0.0513856675
O 1.266731056 -0.3834760484 1.0034161273
C 0.1224478412 0.4316215288 1.0041167496
C -0.9257530136 -0.0294936871 0.0162495087
N -1.8180532408 0.7317260292 -0.4706166004
O -1.7096699711 2.0410667069 -0.0068375256
C -0.9754938581 -1.4728256388 -0.3716102399
H 2.9808449467 -0.787090009 0.0164725271
H 1.670315945 -0.199533159 -1.0333619342
H 2.532693386 0.936171408 0.0287662458
H 0.3795403047 1.4780610294 0.8126687687
H -0.3053280712 0.378859623 2.0094694066
H -2.4146221515 2.4900244216 -0.4762210687
H -1.075538019 -2.0977411785 0.518574465
H -0.0559142651 -1.782317199 -0.8702744704
H -1.8206184553 -1.6467985917 -1.0344794056
