14
0
C -1.9244652354 -0.0120516953 0.0801123015
C -0.4458231516 -0.191769064 0.0268178177
N 0.2310483557 -1.0867463234 0.9658259831
C 0.698008166 0.2704545316 0.9021656063
C 1.6530797597 0.437829096 -0.2780136851
C 0.4579290873 0.0185448015 -1.160082623
O 0.2636687336 0.0569198941 -2.3374183061
H -2.2194959724 0.9195956566 -0.4046130632
H -2.2635587046 -0.0004540049 1.1156632919
H -2.4245060559 -0.8341737068 -0.4347371774
H 0.861202744 -1.7461490719 0.5218755496
H 0.6346659974 0.8916782602 1.784529047
H 2.5455341424 -0.1901609622 -0.270219481
H 1.9327121336 1.4664825885 -0.5119052611
