21
0
C -0.6581000067 1.6555155546 0.6418919241
C -0.5072189871 0.1929416014 0.2125988148
C -1.0575403225 0.0318112058 -1.2051478036
C -1.3056832116 -0.7055735981 1.1617613759
C 0.966154082 -0.1837935221 0.3278992676
C 1.9808606316 0.0713312922 -0.7438489202
C 1.5925824048 -1.3378141148 -0.3923920642
H -0.3028334473 1.8020805787 1.6651393011
H -0.079109592 2.3134395585 -0.0104306875
H -1.7037702609 1.9713716277 0.6023595201
H -2.1154383073 0.303248665 -1.2246796819
H -0.5427471447 0.6786087984 -1.9182620565
H -0.9800431063 -0.998189625 -1.5593847428
H -0.9473861078 -0.6063990034 2.1896061467
H -2.367205761 -0.4449209204 1.1503700027
H -1.2108351545 -1.7556410049 0.8752073568
H 1.3391181787 -0.0363891036 1.3380712443
H 1.6396801433 0.4560559434 -1.6961456978
H 2.959521986 0.4258865244 -0.4481959746
H 2.3036624978 -1.9503782433 0.1460444304
H 0.9963314858 -1.8831922144 -1.1124617551
