8
0
O -0.0096372368 -2.0592773838 -0.412540419
C -0.003988732 -0.8788709286 -0.1749608919
C 1.2245052288 -0.1064144896 -0.0830751147
C 2.2372863333 0.5270063112 -0.0046506921
C -1.2253567593 -0.1196423745 0.0403306006
C -2.2325929244 0.5041555223 0.2121203277
H 3.1443878739 1.0818817281 0.0613693516
H -3.1346037722 1.0511616299 0.3614068179
