16
0
C -1.5775739096 -1.2392344562 -0.0796113963
C -0.5818275587 -0.2471864051 -0.6450958539
C -0.7435091064 1.2632782619 -0.3016271298
C 0.7561195951 1.3417087629 0.0907367918
C 0.7864240189 -0.1606459234 -0.0098346077
N 1.5506211863 -1.0808150756 0.3820086205
O 2.696110124 -0.5632739756 0.9855378713
H -2.560887425 -1.1041417176 -0.535651994
H -1.6814781901 -1.111058789 1.0001110232
H -1.2545612078 -2.2647172728 -0.2644491795
H -0.4806204026 -0.3850080397 -1.7261438666
H -1.0662681026 1.9104047033 -1.1155936788
H -1.4038088544 1.4154727494 0.5529626598
H 1.0022932338 1.7513065334 1.0700229283
H 1.3875819067 1.8260239871 -0.6562256229
H 3.1713846924 -1.3521133433 1.2528534345
