8
0
O 2.271675181 0.1340662638 0.205099124
C 1.1086019542 -0.1216267016 0.2584146625
N 0.0135379951 0.6942759051 0.0494548301
C -1.1034983936 -0.0632586495 0.2272692844
N -0.825712304 -1.2753183559 0.5265659997
O 0.5712394384 -1.3364174979 0.5516680079
H 0.0783279344 1.666761991 -0.1859916199
H -2.1141718055 0.301517045 0.1305778724
