15
0
O -2.2849860723 0.2099979792 0.9978773335
C -1.0719851204 -0.2940575251 0.5168678467
C -0.7855489298 -0.2566370332 -1.0033055511
C 0.642847192 0.1207193708 -0.6448960126
C 1.8909788769 -0.4563107161 -1.1177268918
O 1.5049575865 0.8719601499 -1.4607106428
C 0.2326173932 0.499678827 0.7689600301
H -2.3988594897 1.1057532018 0.672640289
H -0.9960589681 -1.309089865 0.9072363149
H -1.2924192493 0.588671734 -1.476832238
H -0.9617622135 -1.1582573411 -1.588285523
H 2.7400341024 -0.5310752587 -0.4436963879
H 1.8777619104 -1.1671289029 -1.9395823305
H 0.0322426814 1.572942735 0.8303421923
H 0.8701803005 0.2028326443 1.6005466661
