17
0
C -1.7654866625 -0.1146391308 1.3255541303
C -1.6571590339 0.6924124657 0.0637261503
C -0.9817375347 -0.6397999421 0.1638853247
C 0.5147506595 -0.7349238201 0.2487248548
C 1.3308021179 -0.3334992085 -0.992178323
C 1.9695577982 0.6996530182 -0.0607416195
O 1.1073366298 0.3241065982 1.0235071402
H -1.2015966001 0.2381574699 2.1790181898
H -2.7119171793 -0.5831329063 1.5608974514
H -2.5290033176 0.7770493813 -0.5713658672
H -1.0314822225 1.5752507258 0.1024036044
H -1.4290362012 -1.4556560024 -0.3950983767
H 0.7987142123 -1.7094069482 0.6635794983
H 1.9983999466 -1.0939267603 -1.3919937003
H 0.7281432612 0.0881548384 -1.7951636101
H 3.0206037856 0.5205547995 0.1837293967
H 1.8391103406 1.7496454218 -0.3357925249
