13
0
C 2.1547601586 0.3293495267 -0.0203356508
O 1.0388738301 -0.4801464734 0.2544633473
C -0.1710406375 0.2180478687 0.167427651
C -1.2840662739 -0.7759679626 0.4737117913
C -2.6001964376 -0.1521141052 0.3901119632
N -3.6248813392 0.3580165365 0.319281033
H 2.0976149728 0.7596004352 -1.0280893687
H 2.2441915239 1.1477053683 0.7049923975
H 3.039217592 -0.3017404353 0.0460400706
H -0.1995442927 1.0505128604 0.8840414602
H -0.3085403435 0.6408428804 -0.8374207212
H -1.1480534747 -1.1867010821 1.4757169985
H -1.2383352784 -1.6074054175 -0.2317948643
