13
0
C -1.0246690162 -0.8816745959 -0.1679309577
C -0.282500082 0.4348996605 -0.3104724491
O -1.046613149 1.5295401564 0.1608304653
C 1.0005758805 0.479648897 0.5213652635
C 1.9730243426 -0.5211294282 0.0973050458
N 2.7229284271 -1.3161599581 -0.2508719812
H -1.9408824403 -0.8713314687 -0.7625621494
H -0.4127527523 -1.7158989102 -0.5150100712
H -1.2944527677 -1.0533636816 0.8762827192
H -0.013479797 0.5907144555 -1.3636482026
H -1.890073984 1.5373771154 -0.2952176676
H 0.7576077748 0.3177433926 1.5741365962
H 1.4512875637 1.4696343653 0.4357933888
