15
0
C -1.3219926501 -1.2984075298 0.4063190054
N -0.1179779132 -0.5477278542 0.1441800681
C 1.1608046309 -1.0235019553 0.2568469378
C 2.0271764891 -0.0214375047 -0.0817031104
C 1.246671581 1.1211010735 -0.3941147248
C -0.0705633102 0.7651298308 -0.2423129752
N -1.2721487496 1.4645471346 -0.4673450199
H -2.1236022749 -0.9135953456 -0.2220151512
H -1.1520013192 -2.3477455488 0.1679218116
H -1.6278440889 -1.2218017319 1.452954609
H 1.3430242572 -2.0403685153 0.5662939389
H 3.1025230973 -0.0982446484 -0.1021712708
H 1.6025236723 2.0937630382 -0.6960520901
H -1.6465344754 1.8834791108 0.3730928085
H -1.1500589458 2.1848104462 -1.1618948366
