14
0
C 1.187040294 -0.2765883092 -0.6576440789
C -0.0610394443 -1.0673459969 -0.3640111732
C -1.2592247616 -0.1521871319 -0.2360079158
C -0.5737313281 -0.6767617228 0.9859778187
N 0.0258207819 0.6589686073 1.3145635515
C 0.8308850436 0.9677251843 0.1083743753
C -0.6272558531 1.1992874329 0.0964813202
H 1.3257608661 -0.0733468529 -1.7216471762
H 2.085261421 -0.7585015569 -0.2657244762
H -0.2095129855 -2.0794958916 -0.7133167503
H -2.2410481814 -0.3489971909 -0.6370342777
H -0.892290882 -1.3447950149 1.7718826064
H 1.525915789 1.788283519 0.2285636991
H -1.1165807595 2.1637549246 0.0895424769
