14
0
C 1.5476189205 -0.1673146797 -0.2423403541
C 0.3779422422 -0.2484229684 0.7011655465
C -0.8304606177 0.6441946601 0.5372010032
O -0.9456581989 1.4513476087 -0.5986442983
C -0.9428671308 -0.8207061401 0.2486693777
O -1.1096755764 -1.2069786424 -1.0738818396
H 2.1421520089 -1.0804110972 -0.188780522
H 1.2214275879 -0.0569964308 -1.2758755066
H 2.2025520542 0.6719495917 0.0052628425
H 0.636857105 -0.4553240349 1.7342934201
H -1.3074699449 1.0508736807 1.4233204409
H -0.2146940143 2.0712480421 -0.6255311116
H -1.4969097728 -1.4464119613 0.9385041096
H -1.2808146631 -0.4070476285 -1.5833631084
