14
0
C 1.6824248819 0.2370199231 -0.1749891947
C 0.2976590727 0.2314709589 0.4380169378
C -0.4779253979 -1.1144342974 0.4332361608
C -1.673940216 -0.3612127807 -0.1367130158
O -2.828739446 -0.6282655805 -0.2746484963
C -0.8465288826 0.8962367189 -0.37562942
H 1.6607085705 -0.1763996235 -1.1871327879
H 2.0849653161 1.2503135191 -0.2360448676
H 2.3765798909 -0.3642698861 0.4158731845
H 0.3310758891 0.6449205118 1.4478561231
H -0.6405811634 -1.6254428607 1.3821352351
H -0.0843537014 -1.8328683386 -0.2914503951
H -1.2750015092 1.8272503123 -0.0046447843
H -0.6063433047 1.0156814235 -1.4358646797
