16
0
C 2.6679875792 0.7872919656 2.0899250922
C 1.7105911125 0.1329212555 1.2052063496
C 0.9315479775 -0.4100111252 0.4733684523
C -0.0353740848 -1.0592847329 -0.4113295733
C -1.4137837429 -0.447184489 -0.3115523203
C -1.8150600941 0.6839692864 -1.1666231356
N -2.2892933156 -0.6703193366 -1.4531628302
H 2.3878307973 1.8270394694 2.2664138805
H 3.6675907925 0.7769541231 1.6524736422
H 2.7152946527 0.2808981667 3.0552620051
H -0.0949299687 -2.1247928333 -0.1709443316
H 0.300563763 -0.9931169682 -1.4492059358
H -1.8571871629 -0.487198919 0.6793171033
H -1.1102653697 1.0808537246 -1.8886072209
H -2.5152218578 1.4086249558 -0.7667410422
H -3.2502910785 -0.786644543 -1.1588460809
