20
0
C 2.1520390357 0.080710501 -0.2054875594
C 0.958778936 -0.2660556466 0.6767212139
C -0.4372723651 -0.0279427692 0.0705965809
C -0.6443856164 -0.8961993378 -1.1729224328
C -1.4806945125 -0.4123669994 1.1228212779
C -0.6235996232 1.4459384683 -0.298882105
H 2.166196906 1.1387369163 -0.474532685
H 2.158031846 -0.4990977705 -1.1305581352
H 3.0862253246 -0.1331369479 0.3170007865
H 1.0260998003 -1.3200925776 0.9687010487
H 1.0256647343 0.3085699497 1.6072635161
H -0.4952914981 -1.9547203235 -0.9428642397
H -1.6594558128 -0.7794977304 -1.5609202368
H 0.0452334198 -0.6270029308 -1.9753255213
H -1.3774536794 -1.4612253323 1.4134892032
H -2.4948654963 -0.2696162694 0.7411308907
H -1.3742397259 0.1961019574 2.0247897217
H 0.0520489479 1.7508943512 -1.1004840419
H -0.4386394841 2.0945794205 0.5617559762
H -1.6444211368 1.631423071 -0.6422932587
