14
0
C -1.6586608659 -0.2820173172 -0.4846927567
C -0.2890264704 0.3411013652 -0.2764018644
O -0.3477285269 1.4360118363 0.6276065079
C 0.7015943446 -0.6535269574 0.3181053796
C 2.0954847705 -0.093705201 0.4233543371
O 3.0738203317 -0.6523644069 0.0051984915
H -2.359909721 0.4510652471 -0.8907405301
H -1.6053197543 -1.1164528535 -1.1864097421
H -2.0563024076 -0.6472728966 0.4643139318
H 0.0986577933 0.687403515 -1.2452486033
H -0.9253261985 2.1093811827 0.2642723553
H 0.7368880289 -1.5705453648 -0.2711426767
H 0.3613828517 -0.9009407337 1.3305273667
H 2.1744458236 0.8918625843 0.9212578036
