14
0
C 2.8384177499 -0.1700432072 0.0444298588
C 1.4049224433 0.051307683 -0.1017003322
C 0.2236890345 0.2240564467 -0.2170835113
C -1.2205975608 0.4587966933 -0.3614391491
C -2.0257998447 -0.8218876055 -0.2276918316
O -1.7038091125 1.362820365 0.6217910435
H 3.0914056311 -1.2071240658 -0.181070869
H 3.1571936326 0.0410278042 1.066273005
H 3.4059194391 0.4731758063 -0.629574858
H -1.3903423925 0.8809691619 -1.3613756252
H -1.8651698393 -1.2609573005 0.757136144
H -3.0865053099 -0.597775449 -0.3444720514
H -1.7280969468 -1.5419020894 -0.989997533
H -1.1012269239 2.107535757 0.6691105787
