10
0
C 1.1277474478 0.6909993596 -5.6656e-05
C 1.1240095528 -0.6966361748 -0.0213849095
N -0.003736212 -1.3960445638 -0.0213999353
C -1.1275420107 -0.6909634066 6.14461e-05
C -1.1238102691 0.6967950177 0.0213906415
N 0.0037703615 1.3961740143 0.0214044481
H 2.060667949 1.2450235589 -0.0004197282
H 2.053826806 -1.2556536181 -0.0384964222
H -2.0607612511 -1.2448183273 0.0004151799
H -2.0541723746 1.2551241401 0.0384859353
