14
0
C 2.4734055434 0.0114397905 0.6734030789
N 1.293058583 0.834885315 0.4965395947
C 0.2658438291 0.3231503002 0.0212344671
O 0.0351278354 -0.9807982323 -0.4244870803
C -1.262299635 -0.5790578949 -0.9019709237
C -2.105421879 -0.1652895402 0.2383847329
C -1.0932157741 0.8059438286 -0.3483200754
H 3.3301676591 0.5237448317 0.2336259048
H 2.6727927699 -0.096578947 1.7414746232
H 2.3894205426 -0.9846338169 0.2305753752
H -1.5778438358 -0.9372708691 -1.8701220021
H -1.9366513008 -0.6055720437 1.2136398665
H -3.1357476398 0.0748920815 0.0047749171
H -1.348636698 1.7751451962 -0.7450375793
