12
0
N -1.160227585 -1.1155596886 0.0453752921
C -0.7143219845 -0.2797497043 1.00863416
O -0.9956922553 -0.3873784198 2.1813737096
C 0.1770124466 0.8669974876 0.5279061423
O 1.3749300463 0.426707247 -0.1296837441
C 1.3207991225 0.1793072151 -1.4311121055
O 0.3360002156 0.2121150556 -2.1163328357
H -1.0075371493 -0.9115863258 -0.9284327027
H -1.7804899139 -1.8581621785 0.3149828111
H -0.3851097197 1.5264558378 -0.1366983143
H 0.510291466 1.4082997739 1.407441633
H 2.3243453108 -0.0674462999 -1.7989722109
