16
0
C -1.0069880726 -0.7561155379 1.4018541578
C -0.5549547628 0.4112154981 0.546246278
C 0.9587007907 0.7817418686 0.5013437573
C 0.9271976742 0.6607788901 -1.0192062315
C 0.5182736968 -0.721793099 -1.4062744652
C -0.5345921643 0.249207192 -0.9749885149
H -0.8506152142 -0.5468289985 2.4628967233
H -2.0699171377 -0.9604840195 1.253137361
H -0.4557423138 -1.6676541903 1.1606981772
H -1.1315520062 1.3004505488 0.8098960635
H 1.1527589905 1.7922082133 0.8592279931
H 1.6390390173 0.0934947879 1.0106281764
H 1.4190388367 1.32717612 -1.7146233677
H 0.7906437457 -1.5657011781 -0.7801029957
H 0.535100512 -0.9344000745 -2.4680236964
H -1.3363915924 0.5367039793 -1.6427094161
