21
0
C -1.3284948764 1.2223204854 -0.6012598365
C -1.2342291275 -0.0999742468 0.1548399234
C -2.3521308323 -1.0460907173 -0.2730292795
C 0.1301314993 -0.7739193699 -0.0184279896
C 1.3021797861 0.032043903 0.4849046428
C 2.6945840034 -0.3230414455 0.0597520537
C 2.0610937941 0.9452700228 -0.4315412784
H -1.1787871052 1.0642389652 -1.6740449422
H -2.3120074501 1.6789654934 -0.4691046261
H -0.5774074399 1.9374177037 -0.2639187648
H -1.36324539 0.1127013759 1.2238179243
H -3.334850771 -0.5950485408 -0.1187276079
H -2.2641645961 -1.2910873583 -1.3359288715
H -2.3208319819 -1.9831382654 0.2875814293
H 0.1115976493 -1.7378193526 0.5023396809
H 0.2840233532 -1.0045049541 -1.0806755676
H 1.2012113973 0.3754300793 1.5104572391
H 3.4921341296 -0.2474660027 0.7870915878
H 2.8109425798 -1.1358655416 -0.6468786069
H 1.7500794198 0.9840192254 -1.4684238252
H 2.4281719588 1.885548541 -0.0409273162
