17
0
O 1.8950216814 -0.880747113 1.0779203309
C 1.3029782432 -0.4981554856 -0.1619168746
C 0.000754591 -1.2481869719 -0.4340113794
C -1.1690750775 -0.6259218388 0.317934837
C -1.3781556558 0.8186448764 -0.1233992535
C -0.0831162093 1.5752078546 -0.1937143186
C 1.1103824312 0.9927932213 -0.211733882
H 1.4441871503 -0.407009111 1.7801344987
H 2.0414719949 -0.788203666 -0.9139622604
H 0.1409151524 -2.2950091959 -0.1584189846
H -0.2027265243 -1.2182483872 -1.5101702136
H -0.9661473559 -0.6517558567 1.3944913811
H -2.0805913903 -1.207218329 0.1649485237
H -1.8591926065 0.8446539427 -1.1091329406
H -2.0645025781 1.3342386882 0.5538465841
H -0.1446330545 2.6588929913 -0.2365801721
H 2.0124292077 1.59602438 -0.2362358759
