11
0
N 2.1066142204 1.2362274544 0.4238086628
C 1.0260608619 0.6171721144 0.3124936504
O -0.1511081177 1.1256478799 0.727895322
C -1.2059542381 0.2933683384 0.2652071472
C -0.4991864581 -1.0294954819 0.0092011092
O 0.8433612079 -0.6176897592 -0.2240061431
H 2.8758520891 0.6672638739 0.0907899269
H -1.6304579663 0.7204808873 -0.6469935113
H -1.9733834135 0.2372055212 1.0348281771
H -0.5276594672 -1.6915473188 0.8782166838
H -0.8641387184 -1.5586335097 -0.8690368493
