13
0
C 1.8917061466 -0.2876508981 0.4720811147
C 0.6349021919 0.4744536247 0.1566887608
O 0.4877577693 1.6385688346 0.4474455643
C -0.4502767058 -0.2792538224 -0.5446941391
C -1.8034404308 -0.1994002213 0.0736788328
N -1.5161609085 0.4910520407 -1.1625879834
H 2.4043473384 -0.5390473173 -0.4600357179
H 1.6504666815 -1.2290589966 0.9705408674
H 2.5479213434 0.3135477496 1.0968082773
H -0.1582423502 -1.1859951016 -1.0627372144
H -1.8868550174 0.3834479639 0.9845389583
H -2.4651230537 -1.0533453701 -0.006818323
H -1.3370030048 1.4726815139 -0.9649089979
