14
0
O -2.1198124242 -0.1829776986 -0.8845420121
C -1.2098873319 -0.2173855026 0.1785339964
C -0.0017278238 -1.1226724134 -0.1303920203
N 0.8628588917 0.0181486481 0.1518543249
C -0.2231415075 0.9729582612 0.3074242433
C 2.1772995625 0.2358542685 -0.0193934582
O 2.7102985247 1.3180584316 0.0840508525
H -2.8674639643 0.367476279 -0.645219271
H -1.7040338481 -0.4679005384 1.1211226696
H 0.1412562712 -1.9813183068 0.5273511585
H 0.0098538455 -1.4426387155 -1.175118327
H -0.2159459412 1.5105007498 1.2566871448
H -0.2940987326 1.683149425 -0.5202720208
H 2.7345444782 -0.6912528877 -0.2520872804
