14
0
C 1.732488508 -0.5242787069 0.1921809399
C 0.5190959613 0.3421655178 -0.0685945761
C -0.631588471 -0.1613097484 -0.9825094095
C -1.6812039668 0.3031000256 0.0585790893
C -0.525493215 0.4702420143 1.0405297347
O -0.4519394839 0.5425137745 2.2297024294
H 2.336686003 -0.1050288561 0.9977110021
H 1.4342742544 -1.532295482 0.4883075519
H 2.357226568 -0.6031002476 -0.699462447
H 0.8206260948 1.3523034286 -0.3667362016
H -0.6959430573 0.2909035831 -1.9703220959
H -0.6139500991 -1.2464808636 -1.0903108206
H -2.136356351 1.2653521607 -0.1846479817
H -2.4639227453 -0.3940866001 0.3555727851
