10
0
N -1.5954441411 -0.0199592372 0.0739398678
C -0.2115895798 0.0149416809 -0.0439343323
C 0.7311458887 1.0020530094 0.0843844402
N 1.9601831009 0.4404789051 -0.0631379749
N 1.8373495472 -0.8183005171 -0.2810233815
N 0.521429632 -1.0943279426 -0.2627129858
H -2.0662456025 -0.4185243676 -0.7244267893
H -1.9851439915 0.8823115586 0.2933362029
H 0.6003634885 2.0550770019 0.2688688487
H 0.2079516579 -2.0437500917 -0.3637975657
