14
0
C -1.4635839902 -0.9313709681 0.0857514284
C -0.3693739278 -0.2259898495 -0.6875557791
C 0.0029241169 1.1520476794 -0.1138039909
N 1.1448407717 0.7915647765 0.6897508372
C 1.7110090927 -0.380905817 0.2599072082
O 2.7700307402 -0.8426376787 0.5680142598
O 0.8488663139 -0.9781616327 -0.60017601
H -1.2167346215 -0.9700855922 1.1487637679
H -1.5864786002 -1.9511424043 -0.2785389276
H -2.4117919497 -0.403244687 -0.0328767552
H -0.6257759634 -0.1621505875 -1.7453735232
H -0.8079503706 1.5678486609 0.4865383534
H 0.258074671 1.8660546032 -0.9035273206
H 1.7459437174 1.4681734974 1.1231264519
