14
0
C -1.4828055772 0.4067124461 0.0674537408
C -0.2923669286 0.5042103267 -0.835153002
C 1.0572986108 0.8295586318 -0.2122080137
C 1.2922974129 -0.318273079 0.7402022774
C 0.3378797591 -1.2387481242 0.6571897472
C -0.7270715157 -0.8428815592 -0.3036223624
H -1.3953980291 0.7595049692 1.0885658114
H -2.4546667621 0.5565424584 -0.3858161598
H -0.4671811204 0.7657396849 -1.8701795186
H 1.0563308747 1.7955758512 0.3020559802
H 1.8450112975 0.8787891132 -0.9706103581
H 2.1388699164 -0.358038801 1.414335183
H 0.3015864639 -2.1541489547 1.2346873341
H -1.2097844022 -1.5845429631 -0.9269006594
