12
0
C -1.5422026303 -0.439295645 -0.3363147723
C -0.3125798333 -0.2236701193 0.5112091586
O 0.8155252579 -1.0416456166 0.1322039425
C 1.680347471 0.0743497432 -0.1169572113
C 0.5317938532 1.014830529 0.2195224745
O 0.3534333197 2.1897592905 0.2253427639
H -2.3164499381 0.2743813388 -0.0500006183
H -1.31365721 -0.301561859 -1.3940228411
H -1.927411624 -1.4492145067 -0.1921279132
H -0.5358011743 -0.3378658092 1.5785902971
H 2.0380442029 0.1175547109 -1.14953636
H 2.5289583051 0.1223779435 0.5720910795
