15
0
C 2.0161322198 0.0940397423 -0.2421621996
C 0.6678747904 -0.606089442 -0.1505051602
C -0.5144284313 0.335759141 -0.3069766086
C -1.8422125848 -0.4050089031 -0.3151468293
O -0.4532628675 1.2614934594 0.7709839377
H 2.1084883854 0.8599150764 0.5281627827
H 2.1408681262 0.5790052956 -1.2138177464
H 2.8355791796 -0.6157042811 -0.116222147
H 0.5917982282 -1.3793400425 -0.9207181538
H 0.5712206215 -1.1106508051 0.8162659824
H -0.4029489955 0.8789749176 -1.258128889
H -1.8945885505 -1.1027363946 -1.1535922124
H -1.9681008965 -0.9647098798 0.6140660478
H -2.6798285293 0.2908693051 -0.4113290731
H -1.1765906958 1.8841828108 0.6837024265
