19
0
C 2.5434086845 -0.5607779547 -0.0733127573
O 1.1944295597 -0.9380844393 0.0086702147
C 0.3788718434 0.0686153788 0.5311244089
C 0.0713661319 1.3150210698 -0.3242172967
C -1.3856706701 1.218364388 0.179351802
C -1.1265774519 -0.2556793573 0.5780079901
C -1.5818095014 -1.2588698585 -0.4670522932
H 2.944508223 -0.2923487586 0.913375784
H 2.6858827174 0.2921483745 -0.7487730426
H 3.0991418356 -1.4131644486 -0.4619123471
H 0.7430394522 0.3668661851 1.5252535773
H 0.6260512019 2.2307571002 -0.1202311475
H 0.1490771758 1.0797149457 -1.3870316933
H -2.1750325657 1.3913763687 -0.5528141481
H -1.5652974915 1.8586362738 1.0434977662
H -1.496731792 -0.5533035088 1.5610116501
H -2.6725308837 -1.3175378962 -0.4809475343
H -1.2464263712 -0.978942995 -1.4678187715
H -1.1857000977 -2.2527908675 -0.2561821618
