14
0
C -0.8434679476 1.1761123089 -0.1102901211
C 0.0929531592 -0.0258897709 -0.2408438157
C 1.2115923892 0.0267230293 0.8005024591
O 0.6458410345 -0.0595252923 -1.5313494165
C -0.7152180152 -1.2876093119 -0.0114292739
O -0.8287652093 -2.1448099742 -0.8454453355
H -0.2706999774 2.0903741979 -0.2682359238
H -1.6288005109 1.1283741405 -0.8657550301
H -1.3039895713 1.2229747696 0.8790321473
H 1.8727308593 -0.8341053292 0.692169324
H 0.8142300444 0.0449403087 1.8177247561
H 1.7996131745 0.9313039184 0.6429618735
H 0.3585591273 -0.8887201712 -1.936862251
H -1.2045785563 -1.3801428236 0.9778206075
