13
0
C 1.7532653575 -0.1601419719 -0.2960334579
C 0.3035492736 0.1306005965 -0.1573504591
O -0.2770006501 1.2941120157 -0.805411537
C -1.4187731049 0.7033348468 -0.1464037935
C -0.9579017879 -0.7533057284 -0.3808501196
O -1.0704292885 -1.136161337 1.0092487669
C -0.619444811 0.2356211373 1.0916729757
H 2.3457167726 0.6683239541 0.0936182554
H 2.0108455542 -0.3155611809 -1.3442608001
H 1.9961088856 -1.0634802236 0.265432944
H -2.3940474687 1.1741727224 -0.2366945419
H -1.2051181809 -1.4718643301 -1.1589333919
H -0.4667705513 0.6943494989 2.0659651589
