14
0
C 1.1986902122 -0.9708767345 -0.2762114682
C 0.7501761583 0.340226734 0.3598689448
O 1.6556319938 1.3611208372 0.0617364779
C -0.6506991238 0.7387351086 -0.0852660843
O -0.8223850558 1.8171955097 -0.6022180378
C -1.7748190429 -0.2350170002 0.1306530188
H 0.5687924519 -1.8077835769 0.0301590176
H 2.2225235765 -1.1813093533 0.0308576557
H 1.1807315864 -0.8893095305 -1.3646853349
H 0.6934314427 0.2019829456 1.4517242385
H 1.1328033727 2.0788310863 -0.3234579733
H -1.7720925102 -0.9618561902 -0.6855505001
H -2.7250152829 0.2943934694 0.1195178709
H -1.6577697793 -0.7863333054 1.0643424757
