11
0
C -1.6194564621 -0.4325856517 -0.0355393407
C -0.1999104453 -0.012931832 0.0082540951
C 0.4527257991 1.1167776257 0.347440923
N 1.8181964064 0.9283839633 0.1906071564
C 1.918927201 -0.2794415424 -0.2267618587
O 0.7453087544 -0.9242436058 -0.365549385
H -1.8036999574 -1.271410387 0.6384407703
H -2.2567074252 0.3972840028 0.2661972884
H -1.9075972237 -0.7400268681 -1.042599055
H 0.0411428015 2.0500936577 0.695593794
H 2.8110705513 -0.8318993628 -0.4760843877
