16
0
C -2.664412258 0.0890744767 -0.1424741792
C -1.2672103196 0.6123457057 -0.4485415516
C -0.1974265942 -0.3119964883 0.0884239986
O 1.0746492442 0.2500928841 -0.2451756781
C 2.1463941301 -0.4561239145 0.1577884837
O 2.0929246491 -1.5008240476 0.7570478063
N 3.291410745 0.1867107014 -0.1893743139
H -2.8244728101 -0.0104070079 0.9336718485
H -3.4282512723 0.7643550651 -0.529465023
H -2.8287396283 -0.8922897788 -0.5935511088
H -1.1323507961 0.7219656193 -1.5279722921
H -1.1312790541 1.6050872159 -0.0113580839
H -0.2684409789 -0.4203610209 1.1736611631
H -0.2738127194 -1.3108533229 -0.3485812413
H 4.1547933527 -0.304199001 -0.0596956905
H 3.2562243103 0.9774229136 -0.8035855016
