15
0
C 2.7171888015 1.0514655828 -0.7288848026
C 1.6331122718 0.632873675 -0.436037561
C 0.328315644 0.1281271535 -0.0857643821
C -0.0147035398 -1.2687007931 0.4968560799
C -1.3663402345 -0.5291967067 0.3651460867
C -0.6630119294 0.716176447 0.9530309464
C -0.8917675848 -0.0540797173 -1.0273613832
H 3.6797140508 1.4221579939 -0.9910974182
H 0.3435017021 -1.466694509 1.5078659485
H 0.1507811436 -2.1166894358 -0.1687873229
H -2.3500644224 -0.9106471847 0.6277408078
H -1.0923237455 1.6881386694 0.7069170481
H -0.350643385 0.6601652134 1.9966174081
H -0.7869985249 -0.8160300995 -1.8007475028
H -1.3367602475 0.8629337108 -1.4154939528
