14
0
O 1.6705475553 1.7300716459 -1.0644947924
C 1.1466712931 0.7235693973 -0.7053630661
C 1.5092963706 -0.4245008477 0.2400686327
N 0.1790106397 -1.0373964843 -0.00051411
C -0.8670679636 -0.5127264612 0.9242752957
C -1.3731699243 0.4929590475 -0.1309747904
C -0.1879578639 0.0348832717 -0.9939126559
H 2.3248116581 -1.042777826 -0.1427324028
H 1.7278727493 -0.1516759208 1.2754536241
H -0.4559875381 -0.0615182949 1.8315872629
H -1.5824457735 -1.2814607376 1.2152149927
H -1.3863941769 1.5461901423 0.1460035855
H -2.3368892809 0.2284723796 -0.5615882717
H -0.3682977448 -0.2440893116 -2.0330233042
