20
0
C 2.805835219 0.2665652476 -0.191274361
C 1.4569109616 -0.4293724489 -0.3197610945
C 0.3237726205 0.3682733755 0.3163327411
C -1.0420652522 -0.3218983643 0.3156728845
C -2.0508673311 0.4946828419 1.1187137232
C -1.5644936265 -0.5738496593 -1.0964708596
H 2.7902061831 1.244376834 -0.679427027
H 3.6054737598 -0.3187753076 -0.648932363
H 3.0679475684 0.4270848167 0.8575083267
H 1.2432582497 -0.6057968559 -1.3777509707
H 1.5073502698 -1.4177146297 0.1505039283
H 0.2326964677 1.3370439304 -0.1923965466
H 0.5969102583 0.5982720181 1.3528635756
H -0.9242243941 -1.2939605307 0.811563034
H -3.022537401 -0.0025518199 1.158958276
H -1.7109403675 0.6515051112 2.1449463186
H -2.2001366351 1.4787677242 0.6640884826
H -2.5495063237 -1.0450850921 -1.070456075
H -1.6613193238 0.3685808495 -1.6445412323
H -0.9042709034 -1.2261480409 -1.6701407608
