15
0
C 1.8465045088 0.0336798644 0.2166075937
C 0.3715290852 0.2183129009 0.5000715219
C -0.5694010958 -1.0048320064 0.4190333618
C -1.6406772435 -0.0909082997 -0.2107792916
C -0.518195002 0.9083306525 -0.5581205927
H 2.3674222158 0.9937791331 0.1821159757
H 2.3257317824 -0.5775128751 0.9854747863
H 1.9962702951 -0.4625689262 -0.7462205959
H 0.2366206046 0.7152151017 1.4656361084
H -0.1962285177 -1.7360332173 -0.3026872531
H -0.8156288755 -1.5248031388 1.3456056035
H -2.3196999098 0.3114129488 0.5427756681
H -2.233233326 -0.4942983602 -1.0318492703
H -0.7214930974 1.9733693558 -0.4401742032
H -0.1295214242 0.7368568663 -1.5653438867
