11
0
N -2.2541823864 0.2309568909 0.4816977407
C -1.0385725095 -0.2117505735 0.0369143445
N -0.7070895614 -1.3668991387 -0.3997006212
N 0.6828283967 -1.3190728745 -0.5934810144
C 1.0365143054 -0.1287892232 -0.2887057831
N 2.2617865062 0.4673043299 -0.4035017704
O 0.0067504 0.6504359563 0.1332078665
H -2.4748421427 1.1836153035 0.2409427038
H -2.9961022889 -0.4165078675 0.2707300299
H 2.4912101851 1.1096328979 0.3372097931
H 2.9916990955 -0.1989257012 -0.5966002814
