14
0
C 1.8272725685 -0.4431600841 0.2399399173
C 0.6363513213 0.2118691704 -0.4379681624
O -0.2452680268 -0.7859177249 -0.9485812947
C -1.5674149798 -0.5794565236 -0.48243892
C -1.4674414205 0.5802786478 0.4600499088
C -0.2268018382 1.0326794946 0.477008469
H 2.3471809469 -1.0952037692 -0.4627911527
H 2.5322944511 0.3131184592 0.5923875138
H 1.4967581641 -1.0406902773 1.0912565711
H 0.9953515284 0.8243410149 -1.2783196018
H -2.2366856007 -0.3647731838 -1.3262984185
H -1.9335898426 -1.4906232247 0.0052869612
H -2.3078988242 0.9697296166 1.018285713
H 0.1498915524 1.8678083839 1.0521824958
