17
0
C -1.9383653073 -0.3885224503 -0.0605109161
C -1.470990327 0.9166749303 -0.6544389917
C -0.487120106 -0.0647824406 -0.1120138483
C 0.5893972682 -0.8630237011 -0.8622447097
C 1.5108652052 -0.6666337374 0.3419060511
C 1.6871210952 0.7886375614 0.6359957254
C 0.4284797932 0.1103143695 1.0759372043
H -2.3157743073 -1.1479257328 -0.7346401152
H -2.4327895218 -0.3577183158 0.9028108202
H -1.535167345 1.032556097 -1.7294504948
H -1.6474950606 1.8246854938 -0.0910504003
H 0.2996223293 -1.9039356338 -1.0105296116
H 0.9468691261 -0.4498130049 -1.8089630249
H 2.1851396654 -1.412171567 0.7400277721
H 1.6521085485 1.5144697206 -0.1707467347
H 2.3943809733 1.0208485136 1.4225853544
H 0.1337179707 0.0463398975 2.1153259199
