12
0
O 1.5196840579 -0.6886830798 -1.1236844076
C 0.2935512551 -0.7448285939 -0.4629936877
C 0.2194968375 -0.3093997696 1.0411845481
C -0.7882807233 0.7493445676 0.6213894906
O -0.1350335445 1.5689553346 -0.3417524205
C -0.7237515515 0.3505067152 -0.7857240293
H 1.8241118691 0.223103117 -1.0822936306
H -0.1101067939 -1.7463631709 -0.6118184488
H -0.1881837607 -1.089103209 1.6837639561
H 1.1429716769 0.0810707205 1.469440281
H -1.603365636 1.1922883938 1.1769091195
H -1.4510936865 0.4131089743 -1.5844207708
