10
0
N 1.761654102 -0.313218299 0.2085772612
C 0.3981896848 -0.1167624084 0.0713553705
N -0.4473799507 -1.1230704174 -0.0805898953
N -1.6310393886 -0.5263382707 -0.1045693728
N -1.6269118539 0.774589636 0.01008242
C -0.3422973114 1.0784963113 0.1284959085
H 2.3285886399 0.4106872701 -0.1994051994
H 2.0555951672 -1.2316817393 -0.0830991081
H -2.4818468362 -1.0502469826 -0.2008152293
H -0.0145522529 2.0975449 0.2499678446
