15
0
C 2.3454653911 0.5106365395 0.2538792901
C 1.1917704716 -0.4073003491 -0.076638652
O -0.0135344115 0.298216089 0.0903444778
C -1.1511758539 -0.4755634204 -0.2017651845
C -2.3856858207 0.3665820624 0.0213918303
H 3.2953205062 -0.0151255332 0.1424603152
H 2.2664128105 0.8680193743 1.2814900403
H 2.3480418657 1.3767799539 -0.4092138805
H 1.2723182514 -0.7722518494 -1.1117525529
H 1.2016678339 -1.2917875381 0.5781613691
H -1.1716265186 -1.368939785 0.4405838025
H -1.1070833504 -0.8287102326 -1.2431540058
H -3.2851951153 -0.2107442365 -0.1993428173
H -2.3708507204 1.2459742318 -0.6238828518
H -2.4358453397 0.7042146936 1.0574388198
