15
0
C 1.9925669237 -0.3651247702 0.5266382422
C 0.9092487108 0.6521019398 0.3307011157
O 0.583116973 0.9954454976 -1.0206196794
C -0.3739756322 0.3124170132 -0.2593629932
C -1.7863621686 0.7971314727 0.003767982
O -2.2900191319 -0.5244507294 -0.2545261501
C -0.994262828 -1.0218221595 -0.6282828605
H 1.9515096207 -0.7729858096 1.538840444
H 1.8838066662 -1.1849003776 -0.1843112933
H 2.975378178 0.0864586732 0.3818843285
H 0.9396620112 1.5143008907 0.9952777272
H -2.0144112342 1.1335980118 1.0184341965
H -2.1461014985 1.5289743199 -0.7255569166
H -0.9325781398 -1.2636266971 -1.6934826179
H -0.6975784502 -1.8875172753 -0.0294015254
