11
0
C -1.7256921063 0.0873170516 0.0246052806
C -0.359971546 -0.5111860282 -0.0707928906
O -0.1363772328 -1.6835242802 -0.2343393869
C 0.8197951478 0.4825574276 0.056820559
O 0.6285762386 1.6685968102 0.2119209957
N 2.0179240341 -0.1193806271 -0.0235342997
H -2.4779761561 -0.6899458409 -0.0832057623
H -1.8324884353 0.6011471201 0.9815162825
H -1.846640569 0.8514040138 -0.7451425723
H 2.0562797417 -1.1146418118 -0.1587657188
H 2.8565708832 0.4276561649 0.0409175127
