13
0
C -0.1888403913 1.3359774868 -0.8360449896
C -0.1240448381 0.0455566092 -0.0571717155
C -1.0003620979 -0.1756916703 1.1216443664
N -1.3109251449 -0.8119381562 -0.1514080224
C 1.1669384393 -0.611512295 -0.046511597
C 2.2340289746 -1.1563072951 -0.0642656663
H 0.0602915623 1.1592944574 -1.8833501865
H 0.5134065407 2.0666243202 -0.4317092545
H -1.1978484739 1.744667228 -0.7859549972
H -0.6144081786 -0.7839131499 1.931141685
H -1.6809761716 0.6148583296 1.4166201393
H -1.0392174536 -1.7875899648 -0.1370941151
H 3.181957233 -1.6400258999 -0.0758956466
