11
0
C 0.5177315283 0.960133077 0.1897205293
C 0.9274022695 -0.4820376447 -0.1051201527
O -0.2055586387 -0.996181054 -0.7761296208
C -1.2891650493 -0.4036163488 -0.1234588833
O -0.9016451557 0.9087192572 0.2140951856
H 0.8365028755 1.6453366517 -0.6002586912
H 0.8963374071 1.3190529285 1.1494149788
H 1.7925388861 -0.5714870836 -0.7595428297
H 1.1115837619 -1.0422141858 0.8206256621
H -2.1429990478 -0.3763865358 -0.8017788158
H -1.5427288369 -0.9613190618 0.7924326376
