14
0
C -1.7150799216 -0.2781510062 -0.1874797284
C -1.1923033527 1.1250735728 -0.2207530935
C -0.4234296188 0.0555398316 0.4977603624
C 0.8548503772 -0.4301916224 -0.0827230981
C 2.1198710429 -0.3506276662 0.6395551993
O 1.4329641229 -1.5849142482 0.506199032
H -1.662742985 -0.8594580503 -1.0995280672
H -2.5755198113 -0.4927327502 0.4316601994
H -1.6924369383 1.8768201703 0.3746615606
H -0.7890023121 1.4935621809 -1.1559576563
H -0.4385640575 0.080154109 1.581502869
H 0.8945522967 -0.425959754 -1.172549203
H 3.0561170237 -0.2775133842 0.0931937113
H 2.1307241341 0.0683986172 1.6425552947
