16
0
C 2.3823669782 0.0002606932 0.1330571224
O 1.230999551 -0.7035523474 0.5202665541
C 0.1071323568 -0.3638372572 -0.2371677621
C -0.5723827801 1.0037522581 -0.0033674117
C -1.9282703957 0.2716574633 -0.10461934
C -1.1900786679 -1.0526168849 0.1887325923
H 2.2578942755 1.0830799517 0.2613830694
H 2.637804101 -0.1981588751 -0.9165352978
H 3.2018580449 -0.3362667351 0.7666312692
H 0.3116650242 -0.5180743557 -1.3070946414
H -0.379466164 1.3419884266 1.016778409
H -0.3680123729 1.8153355057 -0.701584044
H -2.3293915705 0.2981792847 -1.1185002693
H -2.7131793868 0.5716769922 0.5878185697
H -1.1560903425 -1.260693066 1.2592212078
H -1.4928486511 -1.9527310537 -0.3450200278
