16
0
C 2.0122054531 -0.2889568324 -0.3356310232
C 0.726090044 -0.495545901 0.4541839165
C -0.522899778 0.0025082783 -0.2639623715
C -1.8170208384 -0.4720385456 0.4075522484
C -0.5893096841 1.5082259834 -0.3689297311
O 0.1311324233 2.2804411928 0.2011135355
H 2.1969528178 0.7697394827 -0.520615952
H 2.8714652932 -0.6859656576 0.2070716825
H 1.967584427 -0.8010232418 -1.3006211891
H 0.5945504883 -1.5601273232 0.6697120938
H 0.798494374 0.0128976546 1.4195126696
H -0.5280210389 -0.3690859889 -1.2980792516
H -1.8398034835 -0.1645664042 1.4555486768
H -2.7035640545 -0.0635693842 -0.0827009135
H -1.8869292388 -1.559825084 0.3721458535
H -1.4109272046 1.8868917709 -1.016300245
