14
0
C -1.9721901573 -0.3759429586 0.4261479185
C -0.5814428896 -0.4656882507 -0.1360667549
O -0.2531454617 0.708543419 -0.8536446454
C 1.1178374042 0.9927916945 -0.6273026255
C 1.5750070198 -0.1303810622 0.3076790155
O 0.367058544 -0.5665428957 0.8924118311
H -2.2131954024 -1.2862962154 0.9752578282
H -2.6901327513 -0.2512025881 -0.3842236515
H -2.0385502076 0.4802351023 1.0972940008
H -0.4761156274 -1.332267639 -0.8119801045
H 1.666889925 0.9988258555 -1.5723364593
H 1.2017967092 1.9768340522 -0.159463697
H 2.2481841 0.1990738516 1.0972903686
H 2.0479987952 -0.9479823656 -0.2510630247
