12
0
N 2.2770525783 -0.255938882 -0.1512461769
C 0.9335319968 -0.1049030654 -0.0634300139
N 0.2197783276 -1.1997302566 0.2243539118
C -1.0872959624 -1.0262570027 0.3370907791
C -1.702800909 0.2029749024 0.1695378186
C -0.8618281888 1.260608384 -0.1343249917
N 0.4491852801 1.1278399682 -0.2553987758
H 2.8179833519 0.5066222893 -0.511556166
H 2.6505714331 -1.1857789 -0.1621747652
H -1.6680139989 -1.9145692143 0.5706110036
H -2.7716625415 0.3280991142 0.2658117456
H -1.2565013669 2.2610326629 -0.2892743692
