12
0
O 1.6419635055 0.3957947743 0.869172723
C 1.1894729493 -0.6128606456 0.0033952457
C -0.2460237313 -0.3890906945 -0.4170637557
C -1.2455871472 0.1783179555 0.5053089383
N -0.626208843 1.0151245657 -0.5247160612
H 1.2891103739 1.2238629878 0.5189646899
H 1.281582736 -1.5662806666 0.529225489
H 1.8150796745 -0.6662302331 -0.8989748611
H -0.6087031395 -1.0712357789 -1.1807420505
H -0.9555437493 0.4227223975 1.5198616168
H -2.2818804994 -0.1118021759 0.3751557503
H -1.2532621295 1.1816775135 -1.2995877244
