17
0
C 1.4904607755 -0.710395965 -0.2183581095
C 0.9516889958 0.6835398872 0.1622201553
C -0.0041591143 0.9610371685 -1.005183121
C -0.9532858366 -0.1967348215 -0.6718184547
C -1.4885369823 0.2443329631 0.7057789972
C -0.054571778 -0.0296784399 1.1504235876
C 0.0593532574 -1.1477830194 0.0810961384
H 1.9078977179 -0.8427325128 -1.2196193361
H 2.1794363537 -1.109292327 0.5285826968
H 1.6122890521 1.4833291801 0.4905291712
H 0.4919020725 0.8719671392 -1.9734313366
H -0.5043778093 1.92998252 -0.9565546096
H -1.6156724179 -0.5635356854 -1.4532075476
H -1.909719997 1.2487994607 0.7945531754
H -2.1726892853 -0.486549422 1.1411003499
H 0.2566971833 -0.1595529052 2.1849607416
H -0.2467121876 -2.1767332206 0.2589275016
