13
0
O -0.8195408338 1.403473069 0.5336629163
C -1.1717371537 0.0496692336 0.2616310357
C -0.1441239643 -0.5404000156 -0.6831237564
C 1.272373072 -0.5355553152 -0.1206014265
O 1.8513648846 0.7487154555 -0.081192256
H -1.4095837716 1.7581411753 1.1992037875
H -2.1702397057 0.0026947202 -0.1881917489
H -1.190495935 -0.5283511032 1.1946695109
H -0.1550904372 0.0098180712 -1.6282292926
H -0.4407534202 -1.5709327865 -0.9013841312
H 1.2673461885 -0.9952205769 0.8801923303
H 1.921080795 -1.1472573722 -0.7511297808
H 1.1894002812 1.3452054449 0.2844928116
