12
0
N -2.0110560686 0.0580138161 0.0418824864
C -0.6262844238 0.018190077 0.0236429427
C 0.1547308434 1.1683536889 0.1101882481
N 1.4774486611 1.1314530431 0.1454662676
C 2.0447154752 -0.0662195496 0.0956649371
N 1.4065234391 -1.2257262416 0.0122685789
C 0.0842306616 -1.1787950915 -0.0222379643
H -2.4278677385 0.9230446127 -0.2575131406
H -2.4759378857 -0.7471317261 -0.3420847779
H -0.3134000004 2.1494259866 0.1539911621
H 3.1283092215 -0.1013151669 0.1255632616
H -0.4414121851 -2.1292934486 -0.0868320018
