20
0
C 2.9955283829 -0.1449345373 -0.066912426
C 1.5237437819 -0.5264267774 0.0113204184
C 0.6314346204 0.4376598633 -0.7527604253
N -0.7597426754 0.0329094743 -0.6795246828
C -1.7461025895 1.0777390696 -0.8713141174
C -1.5068565726 0.497295742 0.4712973969
C -2.4602272481 -0.4638041748 1.1223675011
H 3.1680368033 0.8553903945 0.3384794474
H 3.3507602498 -0.1475817253 -1.1003880618
H 3.6166540337 -0.8414322407 0.4982481211
H 1.3683407974 -1.532885171 -0.38574258
H 1.2017652956 -0.5541087642 1.0574684868
H 0.9212471294 0.4573308358 -1.8083288581
H 0.7744188712 1.4610608009 -0.3629195301
H -2.6286802587 0.7965435729 -1.4356504221
H -1.3853054817 2.0862219843 -1.0571876383
H -0.9563563909 1.1413484745 1.1571981159
H -3.2108515909 0.0694675897 1.7099398539
H -2.9713612438 -1.0609111983 0.3663889576
H -1.9264459137 -1.1456702245 1.7880204426
