12
0
C 2.7511636192 -0.1242851671 0.063965965
C 1.6079066272 0.0340368354 -0.2540782586
C 0.2118854828 0.2041326781 -0.6405465612
C -0.8188464326 -0.7427619807 0.0053851728
C -1.4707220242 0.5481060006 0.510133755
O -0.4150988657 1.3509984301 -0.0433785781
H 3.7688009964 -0.2568423119 0.3467917921
H 0.1460527827 0.2522999333 -1.732491932
H -1.4026173958 -1.3399954026 -0.6910168078
H -0.402968699 -1.379783627 0.781962447
H -1.5387622579 0.6631330107 1.5940877347
H -2.4367938333 0.7909616011 0.0591852711
