13
0
O -1.9145417861 0.2241052452 0.302572635
C -1.1279238528 -0.8720095906 0.6784966032
C 0.1528783375 -1.0364615185 -0.1296456174
O 1.3190239425 -0.4105716094 0.4401316602
C 1.4050773797 0.910189091 0.447725225
N 0.4763267835 1.6923108619 0.0977124786
H -1.3072584343 0.9738529892 0.1900770187
H -0.8643669612 -0.8479150744 1.746359438
H -1.7376554663 -1.7650465129 0.5184004642
H 0.4374354273 -2.0868313985 -0.1745882602
H 0.0050350903 -0.6577917034 -1.1444470242
H 2.3904832266 1.2168267091 0.8016250252
H 0.7654863132 2.6593425114 0.1733911379
