15
0
O 2.7833230726 -0.4746096233 -0.190116503
C 1.5863169212 -0.2715161605 -0.0961322641
N 0.6703149748 -1.2898374455 -0.1296163342
C -0.7618799522 -1.107873977 -0.2389048386
C -1.1658364764 0.1574985751 0.4982192052
C -0.3300519699 1.3249953882 0.0019968281
N 1.0738179954 0.9844555138 0.0971127033
H 1.0753564864 -2.1791970923 -0.3609661891
H -1.0786742127 -1.0427486811 -1.2884763063
H -1.2587810689 -1.9765065124 0.197392898
H -1.0028101217 0.0222286975 1.5700579277
H -2.2256559884 0.3614846226 0.3383339141
H -0.517477821 2.2117070966 0.6105665353
H -0.6129234081 1.57085875 -1.0304400748
H 1.764961569 1.7090608487 0.020972499
