16
0
C 1.8970027896 -0.2156845575 -0.1993855613
C 0.5039462416 -0.3225553653 0.3926144217
O 0.3221665715 0.6033480252 1.4605220261
C -0.5927882272 -0.0008957417 -0.6249822356
C -1.9843897338 -0.2815575592 -0.0789273115
O -0.4739138281 1.3377547778 -1.0666738908
H 2.0530190903 0.7762907674 -0.6245043839
H 2.037237602 -0.9565679525 -0.9887838359
H 2.6593673226 -0.3997298174 0.5625488919
H 0.3377355104 -1.3440886317 0.7619104853
H 1.0982953015 0.5907150771 2.0216684564
H -0.419335611 -0.6199786168 -1.5101294353
H -2.1015474683 -1.3383388318 0.1723320848
H -2.1679758056 0.3057912733 0.8225134573
H -2.7335473578 -0.0183806353 -0.8257722674
H -0.4352723977 1.8838777883 -0.2749509016
