16
0
C -2.3853110044 0.4554921239 -0.1721282246
N -1.8338501866 -0.6689265646 0.5656190029
C -0.5376683722 -0.4097486755 1.1302911051
C 0.5947778755 -0.31132131 0.1187218428
O 0.5374077959 -0.7055715958 -1.0149414104
O 1.6880434794 0.2352086649 0.6611977243
C 2.8315219767 0.3109681507 -0.1890640566
H -2.5604077551 1.2862303636 0.515906352
H -3.3494900648 0.1694728117 -0.5930471496
H -1.744624504 0.8108712394 -0.9904753993
H -1.7801415898 -1.4789016797 -0.037311946
H -0.2629136906 -1.209294412 1.8257512362
H -0.5613516905 0.5100982123 1.7189988294
H 3.6152099543 0.7713323049 0.406835474
H 2.6144082412 0.9188089897 -1.0673461998
H 3.1343895349 -0.6847186235 -0.513324116
