15
0
O -1.6269401762 1.1058613741 0.588025027
C -1.5192961576 -0.2264072544 0.1208188351
C -0.0564444369 -0.6003961961 0.0531173562
C 0.7982981301 -0.3805867776 1.3298042384
C 1.8432989407 0.2789513754 0.4391688954
O 2.9960121397 0.552873078 0.5831194402
C 0.8860838871 0.3408390861 -0.7439041832
H -2.5511035295 1.351609787 0.6303757905
H -2.0426825356 -0.9169508661 0.7949194411
H -1.9675171476 -0.3246113668 -0.8765259555
H 0.0241355506 -1.6294034592 -0.3020896219
H 0.3480079817 0.3525074473 2.0027248561
H 1.1244778884 -1.2508455919 1.8985068697
H 0.4679922892 1.3446650711 -0.8476242812
H 1.2756771759 0.0018942929 -1.7033035796
