13
0
C -1.8529042489 -0.4725795941 -0.1513352179
N -0.5084575909 -0.3249503764 0.3686756215
C -0.0425031083 1.0229728004 0.5798757721
C 0.4703283669 0.2137218456 -0.5604285774
C 1.7962334078 -0.354713112 -0.5617400333
C 2.9031605573 -0.8105721463 -0.5779198453
H -1.9360691367 -1.431496276 -0.6641829892
H -2.1330385028 0.3268314673 -0.8539937673
H -2.5581181822 -0.4642335709 0.680876049
H -0.7129792806 1.8420302397 0.3320439685
H 0.5883357848 1.1777069243 1.4464474875
H 0.1025294968 0.4998179785 -1.5431773123
H 3.8834824367 -1.2245361799 -0.5860042946
