16
0
C 2.2012092613 -0.3036678212 -1.3042235316
N 0.9351854045 -0.0065734018 -0.6709132728
C 0.9456909122 0.7166151036 0.359023505
O -0.1280421615 1.0948173711 1.042652619
C -1.4358111969 0.8198563539 0.51107117
C -1.8506656447 -0.644470086 0.5438057532
O -1.5310419797 -1.361688635 -0.6170128082
H 2.3465515843 -1.3848362248 -1.3406330262
H 2.1871071298 0.0585555499 -2.3336112067
H 3.0583788903 0.1468576575 -0.7892610221
H 1.8519870434 1.120230432 0.8185928289
H -2.0903232987 1.4100052404 1.1513482032
H -1.4932171376 1.2009870648 -0.5123740581
H -1.4230438204 -1.1053618698 1.446363334
H -2.9385175141 -0.6800822464 0.6482211007
H -0.6354474721 -1.0812444885 -0.8714429555
