17
0
C -1.9932219971 -0.3390154488 -0.5458725912
O -0.7011488486 -0.8905070219 -0.6303764575
C 0.3443303475 -0.1729020208 0.0096672491
C 1.6096768379 -0.9631212134 -0.3084514733
C 0.1258976854 -0.0869680941 1.5225724063
C 0.4596785673 1.1910221312 -0.5534037026
C 0.5608468215 2.2968429803 -1.0019726094
H -2.0145035425 0.6964787135 -0.9024541895
H -2.6283018251 -0.9471575894 -1.1881373488
H -2.3931607479 -0.3745054168 0.4733461128
H 1.5195444734 -1.9667738182 0.1091241042
H 2.4857139757 -0.47446828 0.1177904129
H 1.7365050033 -1.0410868624 -1.3875332607
H 0.996259204 0.3640500649 1.9995432292
H -0.0173006593 -1.0923290359 1.9224122217
H -0.7423707027 0.5231965563 1.7703034099
H 0.6515554071 3.2772443559 -1.406557513
