14
0
C -1.7842222793 -0.102887323 0.3879149502
C -0.3326845584 0.1563419057 0.1877268092
C 0.2963550367 1.0056497913 -0.8612232525
C 0.7328594532 -0.4307112382 -0.6971863224
C 1.5469527487 -0.5364003252 0.5752033525
O 0.5096605467 0.1134578135 1.3414522569
H -1.9393060113 -1.0580867399 0.8916666264
H -2.2256704617 0.6866536643 1.0000322329
H -2.3030315663 -0.1207348512 -0.5711714304
H 0.9606642617 1.8130089256 -0.5716884083
H -0.3138404368 1.1962206265 -1.7358363848
H 0.6672708681 -1.1674130932 -1.4842497387
H 2.4952644744 0.0074593679 0.6154762351
H 1.6897279243 -1.5625585242 0.9218830741
