13
0
O 2.0737805723 -1.2071908778 -0.288935703
C 1.5146162405 -0.1748219042 -0.5494931548
C 0.1331685743 0.1561497225 -0.1334599644
C -0.3393950266 -0.4046520284 1.2106467569
C -0.8590144795 -1.0037106667 -0.0175810086
C -0.4140078584 1.4680995914 -0.546365193
O -1.5167230488 1.8606382723 -0.2700025187
H 2.0327294394 0.6114269789 -1.1371530737
H -0.9834832074 0.258939134 1.7719391446
H 0.4208382648 -0.9417516463 1.7619520826
H -1.8686751406 -0.7598951127 -0.3200708818
H -0.4644400279 -1.9613486419 -0.3301417771
H 0.270605698 2.0981171788 -1.151334709
