16
0
C -1.9812217406 -0.4209979852 0.0434614725
C -1.1586217813 0.6342213997 0.7328026842
N -0.0553840686 0.2726586014 1.6257648497
C 0.2412671456 0.9261115403 0.3569013588
C 0.9469673942 0.1723375605 -0.7263064176
C 2.2371579969 -0.4668463611 -0.4813049826
O 1.0468811391 -1.2355431797 -0.5859664342
H -2.5201888656 0.0089440559 -0.8038012476
H -2.7214277367 -0.8333761438 0.7324872883
H -1.3654700087 -1.2412580103 -0.3253564707
H -1.7377685149 1.4718180384 1.1117119622
H 0.136085706 -0.7210307302 1.5230849552
H 0.5940683439 1.9499941927 0.4525249232
H 0.7284299966 0.5002888845 -1.7409635453
H 2.9426414239 -0.5990281078 -1.2956428696
H 2.6665835702 -0.4182937554 0.5153776853
