12
0
O -0.0588282637 1.3004617067 -1.1291262877
C 0.0871175574 0.2685265689 -0.2223839603
C -0.8732331296 -0.8907556235 -0.294374514
C -0.9737207694 0.0851432891 0.8314115101
C 1.4835787659 -0.0200566652 0.148224684
O 2.4081582226 0.5981541518 -0.3152200633
H 0.8361812608 1.6072109453 -1.3269643751
H -0.5058190155 -1.8892092288 -0.0935504159
H -1.5980763946 -0.8142004857 -1.0931402579
H -0.6764556695 -0.2262335434 1.8248686106
H -1.767056522 0.8188467996 0.7924885123
H 1.6381539575 -0.8378879148 0.8777665572
