17
0
C 1.8703099951 0.3883857946 -0.6048932885
C 0.5623204286 0.1248829437 0.0789818131
C 0.1804652493 -1.3152132397 0.4759057122
C -1.2358087291 -1.0949739228 -0.117831925
C -0.8563475346 0.3467544829 -0.5079600804
C -1.0042502742 1.364949582 0.6197545342
O 0.2974584828 1.0561124574 1.1475907298
H 2.6927637023 0.2186660804 0.0943536655
H 2.0018776977 -0.2799504613 -1.4579073491
H 1.9236790407 1.4208505797 -0.9535284425
H 0.7571653786 -2.083188007 -0.0418727562
H 0.2341002977 -1.4930130617 1.5495464552
H -2.0694772674 -1.1823943412 0.5805946164
H -1.4425977345 -1.7324152418 -0.9770493698
H -1.0518482246 0.6799206518 -1.5249485003
H -1.8014425939 1.172410733 1.3450602609
H -1.0583679145 2.4082149699 0.2942039246
