9
0
N 1.5582675891 -0.1708417737 0.153843101
C 0.1772611112 -0.1264986617 0.1330733332
C -0.7136227763 0.8823747408 0.2592859941
O -1.9378273009 0.3594162763 0.0921988252
N -1.7834805041 -0.977024671 -0.1464474149
N -0.5588273207 -1.2556244485 -0.1192773874
H 1.9096995369 -1.1106956469 0.2456278888
H 1.9939005373 0.4604415463 0.8044397444
H -0.6453708726 1.9384526383 0.4487708245
