19
0
C 1.663208255 0.8723071655 0.6261828142
C 0.731313775 -0.2052265741 0.1237546579
C 1.3803173432 -1.0893343441 -0.9149079912
O -0.0155203658 -0.8901855385 1.1311048527
C -0.7345061173 -0.0629856199 0.2144892038
C -1.3762082893 1.1659919013 0.8149099637
C -1.6633083302 -0.7916526805 -0.7275890841
H 2.596670412 0.4199593436 0.9681157578
H 1.2411827938 1.4284159127 1.4586220095
H 1.9056686162 1.5734495881 -0.1758010875
H 1.6230152808 -0.5125261798 -1.8105271142
H 0.7500564163 -1.9270973671 -1.200158768
H 2.3129596003 -1.4949883568 -0.5166050192
H -1.5797798442 1.9088470264 0.040067158
H -2.3294057834 0.8926725514 1.2728901488
H -0.7592362879 1.6244982127 1.5826404444
H -2.5934598681 -1.0327541121 -0.2081852735
H -1.239672787 -1.7213299337 -1.0971509936
H -1.9132948198 -0.158060995 -1.5818516797
