15
0
C 1.4938494851 0.687835748 -0.3264799358
C 0.3354643694 -0.0356486495 0.319058749
O 0.6666737308 -0.5467070579 1.594413076
C -1.0236538421 0.7138571218 0.4456923869
C -1.6633531645 -0.3861698635 -0.3916608328
O -0.9745134851 -0.4138647866 -1.6380863763
C -0.3945254236 -1.0928157978 -0.5372474766
H 1.2131521714 1.0450217097 -1.3170821919
H 1.7937687748 1.5399102326 0.2862352036
H 2.3550420257 0.0214976154 -0.435427589
H 1.4766202987 -1.0565430657 1.5175987217
H -1.3497530108 0.716875465 1.4845961797
H -1.0808460052 1.7160033367 0.0205905155
H -2.6775184226 -0.7617019939 -0.3784676829
H -0.1704075022 -2.1475500145 -0.6437327472
