13
0
C -0.1466975241 -0.7626359407 0.8058880666
C -1.2358698366 -0.1480855955 -0.0948042336
C -0.5127562566 0.9854520988 -0.773568473
C 0.8003806844 0.9049142767 -0.6109988012
C 1.1948104035 -0.2973083288 0.2063135737
H -0.2232022976 -1.8476811172 0.8822393277
H -0.2466129293 -0.3589398105 1.815757851
H -1.6010753894 -0.8638624945 -0.840130345
H -2.1089650887 0.1830888086 0.4721045935
H -1.0210176332 1.7447618526 -1.3556727623
H 1.522095918 1.5887994647 -1.0413176692
H 1.6413809574 -1.0626272409 -0.4388690462
H 1.9375289923 -0.0658759732 0.973057918
