16
0
C -1.9453303746 -0.877224493 0.3232524307
O -1.2001137018 0.2453371329 0.7304604489
C -0.4710815445 0.8042417284 -0.3107992695
C 0.7035360972 1.6318948491 0.0683095628
C 0.9157424918 0.3005896609 -0.6103719113
C 1.5094545545 -0.8456288361 0.1663786889
H -2.4761851421 -1.248858609 1.198688666
H -1.2975422173 -1.670038669 -0.0683506857
H -2.6764082382 -0.610229574 -0.4502110963
H -1.0824525604 1.129650655 -1.1514464801
H 0.9250274553 1.6744812527 1.1278189086
H 0.8954483359 2.5468174245 -0.4761350461
H 1.2061246814 0.3459505118 -1.6547651601
H 1.3292301619 -1.8003512509 -0.3331445037
H 1.0750166134 -0.9010603074 1.1655637516
H 2.5895333875 -0.7255714759 0.274751695
