14
0
C -1.518928892 -0.5800762015 0.1303784531
C -0.1723157229 0.0828282227 0.0531888995
C 1.0024525483 -0.8575967287 -0.1345641971
O 2.242159619 -0.2078242369 -0.0401307504
C -0.0470296229 1.4805789786 -0.3428897335
O 0.0735698371 1.0954188824 1.0268053867
H -1.5443542593 -1.2979142125 0.952966835
H -1.7371542357 -1.115717369 -0.7960899877
H -2.3014176557 0.1592731899 0.2977139948
H 0.9495942564 -1.3185652851 -1.1236320892
H 0.9183109428 -1.6616614974 0.6107557515
H 2.2053877703 0.3442728506 0.7479409414
H -0.9422487637 2.0486546907 -0.5792028543
H 0.8719741786 1.8283287161 -0.8032406499
