15
0
C 2.0787862094 0.1713035841 -0.2713676061
C 0.6026850226 0.2183226282 -0.1158521748
O -0.1517253174 1.1263003229 -0.9135484048
C -1.2637676269 0.8469491551 -0.032814443
C -1.6572290759 -0.5968047358 -0.3938302205
C -0.3109724126 -0.965724916 0.2065319164
C -0.2964555759 0.2948780191 1.0606674901
H 2.5151511834 1.1567740257 -0.1028156408
H 2.5094693005 -0.5281418315 0.4465990401
H 2.3448070305 -0.1609029151 -1.2766042381
H -1.9767557706 1.6621654649 0.0458281866
H -2.4805816648 -0.9543135717 0.225296493
H -1.846180467 -0.7978263519 -1.4503050036
H 0.0782027712 -1.9431831754 0.4569978842
H -0.1454336062 0.4702042974 2.1152167213
