9
0
C -1.8057672817 0.2249617437 -0.0941072012
C -0.3655281259 0.0452270942 -0.0154685296
C 0.8275146827 -0.0836271155 0.0343274784
C 2.2574258342 -0.283081065 0.1219852981
O 3.0725115442 0.4651171256 -0.3490369236
H -2.0746816762 1.2490392322 0.1681641622
H -2.3244912207 -0.4571864134 0.5798582623
H -2.1502669533 0.0344655525 -1.111761945
H 2.5632831966 -1.1949161542 0.6660393983
