12
0
C -1.2897507424 -0.2551395612 -0.0225295367
O -0.8482423413 1.0383036966 -0.3976284576
C 0.557003652 1.0401469676 -0.5807545356
C 1.0707197418 -0.1307410175 0.2132496549
O 0.5773976307 -0.1572504856 1.544178524
C -0.084981136 -0.9409794826 0.5634040371
H -2.1089472384 -0.1358804113 0.6891349588
H -1.6497286125 -0.8248884877 -0.8902018226
H 0.8250490657 0.9116190287 -1.6384541808
H 0.939868436 2.0007835489 -0.2308532052
H 2.0665702955 -0.5292015745 0.0542135406
H -0.0549587512 -2.0167722215 0.6962410233
