16
0
C 2.4926902475 0.3889260044 0.0502037195
O 1.1199426004 0.681828503 0.1171891838
C 0.3270525293 -0.4627872881 0.2603100497
C -1.1344490086 -0.0155886184 0.2943170365
C -1.5699778165 0.6657719666 -1.0037759977
C -1.9817642304 -1.1736185689 0.591039233
N -2.636617573 -2.0906570805 0.8066873672
H 3.0216852256 1.3338814003 -0.0606748122
H 2.7224066262 -0.2546421517 -0.8082616724
H 2.8404237247 -0.1094996483 0.9638103467
H 0.577703853 -0.9979587112 1.1864795154
H 0.4846953451 -1.1567824335 -0.578722257
H -1.2453673833 0.6857574686 1.1264823835
H -2.6031024963 1.005705392 -0.9372547986
H -0.9263909855 1.5232828887 -1.1922230531
H -1.4889306581 -0.0236191234 -1.8457735175
