16
0
C 2.0527140964 -0.0201492739 0.1386245412
O 0.892136736 -0.2731773637 0.892559823
C -0.3033227228 -0.0037791272 0.218479279
C -0.5897651138 1.4569368926 -0.0148724996
C -0.7547757604 -1.0302159876 -0.7788490562
C -1.4115820883 -0.9290988457 0.5772314371
H 2.8958451059 -0.3991539953 0.7148232815
H 2.0218267295 -0.5348970654 -0.8291681209
H 2.2053104519 1.0504842259 -0.0388948652
H -1.5771828428 1.585402892 -0.4596784256
H -0.5647177341 1.9997991695 0.9320997767
H 0.138302624 1.908124177 -0.6924471947
H -1.3069539005 -0.7009884081 -1.6499607362
H -0.1030951281 -1.8781555639 -0.9445285431
H -1.1796426224 -1.7031903262 1.2959215263
H -2.4150978305 -0.5279413997 0.6386597765
