14
0
C 1.9862956128 0.3242386803 0.092988802
O 0.9020476893 -0.3865068247 0.6389676371
C -0.2403106237 -0.4101610362 -0.1853943245
C -1.2344128426 -1.3761625743 0.4358466164
C -0.8276647355 0.9327156417 -0.3531763108
C -1.3113649021 2.0196651072 -0.4887796261
H 2.2964543004 -0.1015347238 -0.8702947809
H 2.8100924529 0.2386384915 0.7995246719
H 1.7439227435 1.382792943 -0.0517341812
H 0.0436484546 -0.7714282447 -1.1857413789
H -2.1352628455 -1.4399806146 -0.1743383204
H -0.7806579864 -2.3640712832 0.5133015736
H -1.5095108951 -1.0339099499 1.4334564453
H -1.7432764227 2.9857043877 -0.6046268234
