16
0
C -0.7400127089 -1.0236444057 0.778573101
C -1.4671242184 0.3031752319 0.4451935467
C -0.4602766688 0.5615551873 -0.6857934824
C 0.8893778221 1.1668562172 -0.2287691739
C 1.527685408 -0.2451334962 -0.2178464035
C 0.1459653574 -0.8627954922 -0.4807129413
H -0.1759210189 -1.0162677318 1.713476079
H -1.3808618566 -1.9051094833 0.7797167808
H -2.4771776141 0.1324628493 0.0699575667
H -1.5178033228 1.0573464647 1.2334059535
H -0.8456294331 0.9161653475 -1.6408810624
H 1.3421648175 1.8621114688 -0.9353423233
H 0.8425447116 1.6591221573 0.744813137
H 2.0299007055 -0.5589739296 0.6997249893
H 2.2157389408 -0.3913760761 -1.051540578
H 0.0714290788 -1.6554943092 -1.223975189
