18
0
C -2.4422540274 -0.1579713948 -1.0662009377
C -1.4276931376 -0.0383985576 0.0629414167
C 0.0077921298 -0.1622236114 -0.4309488658
C 1.0665311705 -0.0658465457 0.6755620869
C 2.485992007 -0.2684436144 0.1403340056
C 0.9700482273 1.2231510861 1.3713368748
N 0.8999314191 2.2386204749 1.9013881197
H -3.4626485947 -0.0604331828 -0.6929234607
H -2.2873289136 0.6210507532 -1.8164590522
H -2.3635317843 -1.1240674092 -1.5708817132
H -1.5541484798 0.9217799717 0.571394609
H -1.619522197 -0.8115842579 0.8144557966
H 0.1440729413 -1.1259773891 -0.9317844036
H 0.2108463235 0.6100510336 -1.1800566101
H 0.8562946798 -0.8344656205 1.4267621078
H 2.5659734806 -1.2512296468 -0.326060387
H 2.7251574929 0.4880507975 -0.6085158356
H 3.2244872627 -0.2020628872 0.9390464511
