13
0
N -2.136063638 0.6701038344 -0.4685383742
C -0.8628300057 0.1394498683 -0.2044069364
C -0.4699781217 -1.1649257669 -0.2936922306
N 0.8938084684 -1.2054986221 -0.0245099351
C 1.328336959 0.0420291402 0.2380083063
O 2.6373445256 0.2069501806 0.5352626379
C 0.2832975213 0.9222993995 0.1374978194
H -2.8503212965 -0.0400307813 -0.5117178203
H -2.4054305168 1.3768064424 0.1983072018
H -1.0226239054 -2.057704793 -0.5325180335
H 1.4731273924 -2.022570827 -0.0087952369
H 2.8071987663 1.1406966933 0.667372116
H 0.3241338512 1.992395232 0.2677304856
