18
0
C -1.4362603462 -0.9945649869 0.497097941
C -0.349875066 -0.0490005892 0.0182317058
C -0.9549673322 1.1814467744 -0.6446405314
C 0.7381395349 0.334718064 1.0565791493
C 1.8179270798 0.1102701375 -0.0213676846
C 0.7772946053 -0.6716975246 -0.8486618313
H -2.0663912628 -1.3224731224 -0.3346228738
H -1.0077768367 -1.8843466688 0.9641547824
H -2.0830510189 -0.5073736978 1.2322582837
H -1.5608207548 0.8990130274 -1.509866318
H -0.1822797838 1.8727148325 -0.9898556645
H -1.597730987 1.7243931771 0.0535640149
H 0.6660812659 1.3277582977 1.5044881811
H 0.8068922522 -0.403308639 1.8585359492
H 2.7173072042 -0.4254519872 0.2812398019
H 2.1211246143 1.0391730445 -0.5055764945
H 0.8581507973 -1.7488945378 -0.6884630729
H 0.7362360345 -0.4823756017 -1.9230953384
