14
0
C 1.98424555 0.071758791 -0.1741172493
C 0.5109521034 0.0374852059 0.0044778561
C -0.665545359 -0.1177131481 -0.9869269407
C -1.5911590477 0.5121513683 0.0461276297
C -1.3328796248 -0.9622931895 0.0535699425
N -0.1706262527 -0.8275922188 1.0100081955
C -0.3939809286 0.6503429445 1.0029122879
H 2.2908539287 0.9569414486 -0.7352398831
H 2.3301124962 -0.8154938313 -0.7088704647
H 2.4724358484 0.092837313 0.8015686136
H -0.7446697395 -0.1223606898 -2.06333409
H -2.5014752291 1.0713737548 -0.102628329
H -1.9887444536 -1.8184427765 -0.0150177652
H -0.1995192919 1.2710050281 1.8674701968
