8
0
O 1.9403759503 0.170979618 0.3466703631
C 0.6474539069 0.0039876299 0.112478752
N 0.0840364093 -1.159541246 -0.0344415829
O -1.2469161919 -0.8300358055 -0.2535589905
C -1.3128886974 0.4896486169 -0.2101230165
N -0.1885862066 1.0775569839 0.0108109847
H 2.3585007356 -0.6956554033 0.3869102795
H -2.2819759063 0.9430596061 -0.3587467894
