14
0
C -2.0670458473 0.3155031102 -0.2487632245
C -0.8173878634 -0.5012000262 0.0281697568
C 0.4568390221 0.3015032109 -0.0319870907
O 0.4778938002 1.495133649 -0.2163151883
C 1.7673843294 -0.4398912848 0.1500301289
O 2.8569816585 0.4246514084 0.1000337372
H -2.1738739531 1.1231396488 0.4752005834
H -2.9559834978 -0.3137834482 -0.1963507111
H -2.0253447855 0.7701812926 -1.2385997505
H -0.7189935375 -1.3333466722 -0.6768004232
H -0.8604028147 -0.9672832195 1.0187301574
H 1.7337636997 -0.9719330206 1.1101169074
H 1.8382663551 -1.2062568457 -0.6341446731
H 2.4879034342 1.3035821972 -0.0666377044
