13
0
O 2.1137706305 1.4744576675 -1.3275109497
C 1.6454874457 0.9362258352 -0.3636495944
C 0.834170321 -0.3328705962 -0.459141536
O 0.6726661628 -1.0327914773 0.7865619752
C -0.7442644716 -1.022314797 0.6248170153
C -1.2657826744 0.3657860233 0.6635708296
C -0.6750348931 -0.1775882914 -0.6147759116
H 1.7613819862 1.3570086952 0.6555611169
H 1.2665339971 -0.9849096895 -1.2221904281
H -1.2936889761 -1.921729873 0.8660628801
H -2.3446294452 0.4569723825 0.6388809095
H -0.7551296243 1.1158856635 1.2550844401
H -1.2154804587 -0.2341315427 -1.5464677261
