17
0
C 2.0803340563 -0.1109461152 -0.4679720479
C 0.7677909731 0.2624355657 0.172713789
O 0.0227483884 1.101017968 -0.7019898418
C -1.2826087907 1.2067317738 -0.1508251855
C -1.5246901013 -0.0937161121 0.6434561499
C -0.2168901335 -0.873858134 0.4577805202
O -0.2893225121 -1.7988357301 -0.6076985371
H 2.664675202 0.7853519624 -0.6770048549
H 1.9223455945 -0.6488404648 -1.402111794
H 2.6560599909 -0.7524578316 0.2009435834
H 0.9541566965 0.7981184947 1.1180886561
H -1.9813559486 1.3505098736 -0.9754019374
H -1.3384058408 2.0862951166 0.5011217028
H -1.7033071637 0.1182726172 1.6983539192
H -2.3672197436 -0.6750314755 0.2712269035
H 0.057637372 -1.4537641609 1.3392139282
H -0.4219480391 -1.301283348 -1.4198949536
