12
0
C -1.7926788858 0.151432919 0.2439688255
C -0.3823293826 -0.3801998516 0.140721966
O 0.5178213968 0.6574661908 0.4466757109
C 1.8562368148 0.2482548347 0.3858771596
H -1.9430543726 0.9752951764 -0.4548477432
H -2.5137783815 -0.6344169161 0.0126051284
H -1.990214435 0.5163239964 1.2527559525
H -0.1845961909 -0.7597290989 -0.8733164268
H -0.2333184134 -1.2201392028 0.8361024419
H 2.0630165692 -0.5602602277 1.100222819
H 2.1262008464 -0.1015364936 -0.6199133391
H 2.4766944348 1.1075086737 0.6379770841
