13
0
N 1.5456701364 -1.1677603929 -1.2650017865
C 1.0741269899 -0.2411465692 -0.5750938388
O 1.6391915017 0.8998131511 -0.0653572968
C 0.4087566369 1.268607749 0.6297858032
C -0.2557854931 0.042189447 0.0339704527
C -1.5828436115 -0.2267316014 -0.5388155818
N -1.1362618451 -0.8947173404 0.6796929778
H 2.5292859753 -1.0298123517 -1.4807851482
H 0.5472110941 1.2453533595 1.7100847539
H 0.0482378802 2.2394486455 0.2919083545
H -1.6106025642 -0.7894395215 -1.4652802303
H -2.3773208456 0.4962673442 -0.3971121608
H -0.8296658547 -1.8420719191 0.4853487856
